(PID.TID 0000.0001) 
(PID.TID 0000.0001) // ======================================================
(PID.TID 0000.0001) //                      MITgcm UV
(PID.TID 0000.0001) //                      =========
(PID.TID 0000.0001) // ======================================================
(PID.TID 0000.0001) // execution environment starting up...
(PID.TID 0000.0001) 
(PID.TID 0000.0001) // MITgcmUV version:  checkpoint61k
(PID.TID 0000.0001) // Build user:        jahn
(PID.TID 0000.0001) // Build host:        rilke.csail.mit.edu
(PID.TID 0000.0001) // Build date:        Mon Mar 30 12:16:13 EDT 2009
(PID.TID 0000.0001) 
(PID.TID 0000.0001) // =======================================================
(PID.TID 0000.0001) // Execution Environment parameter file "eedata"
(PID.TID 0000.0001) // =======================================================
(PID.TID 0000.0001) ># Example "eedata" file
(PID.TID 0000.0001) ># Lines beginning "#" are comments
(PID.TID 0000.0001) ># nTx - No. threads per process in X
(PID.TID 0000.0001) ># nTy - No. threads per process in Y
(PID.TID 0000.0001) > &EEPARMS
(PID.TID 0000.0001) > nTx=1,
(PID.TID 0000.0001) > nTy=1,
(PID.TID 0000.0001) > printMapIncludesZeros = .TRUE.
(PID.TID 0000.0001) > /
(PID.TID 0000.0001) ># Note: Some systems use & as the
(PID.TID 0000.0001) ># namelist terminator. Other systems
(PID.TID 0000.0001) ># use a / character (as shown here).
(PID.TID 0000.0001) 
(PID.TID 0000.0001) // =======================================================
(PID.TID 0000.0001) // Computational Grid Specification ( see files "SIZE.h" )
(PID.TID 0000.0001) //                                  ( and "eedata"       )
(PID.TID 0000.0001) // =======================================================
(PID.TID 0000.0001)      nPx =    1 ; /* No. processes in X */
(PID.TID 0000.0001)      nPy =    1 ; /* No. processes in Y */
(PID.TID 0000.0001)      nSx =    2 ; /* No. tiles in X per process */
(PID.TID 0000.0001)      nSy =    2 ; /* No. tiles in Y per process */
(PID.TID 0000.0001)      sNx =   38 ; /* Tile size in X */
(PID.TID 0000.0001)      sNy =   36 ; /* Tile size in Y */
(PID.TID 0000.0001)      OLx =    4 ; /* Tile overlap distance in X */
(PID.TID 0000.0001)      OLy =    4 ; /* Tile overlap distance in Y */
(PID.TID 0000.0001)      nTx =    1 ; /* No. threads in X per process */
(PID.TID 0000.0001)      nTy =    1 ; /* No. threads in Y per process */
(PID.TID 0000.0001)       Nr =   24 ; /* No. levels in the vertical   */
(PID.TID 0000.0001)       nX =   76 ; /* Total domain size in X ( = nPx*nSx*sNx ) */
(PID.TID 0000.0001)       nY =   72 ; /* Total domain size in Y ( = nPy*nSy*sNy ) */
(PID.TID 0000.0001)   nTiles =    4 ; /* Total no. tiles per process ( = nSx*nSy ) */
(PID.TID 0000.0001)   nProcs =    1 ; /* Total no. processes ( = nPx*nPy ) */
(PID.TID 0000.0001) nThreads =    1 ; /* Total no. threads per process ( = nTx*nTy ) */
(PID.TID 0000.0001) usingMPI =    F ; /* Flag used to control whether MPI is in use */
(PID.TID 0000.0001)                   /*  note: To execute a program with MPI calls */
(PID.TID 0000.0001)                   /*  it must be launched appropriately e.g     */
(PID.TID 0000.0001)                   /*  "mpirun -np 64 ......"                    */
(PID.TID 0000.0001) useCoupler=   F ; /* Flag used to control communications with */
(PID.TID 0000.0001)                   /*  other model components, through a coupler */
(PID.TID 0000.0001) 
(PID.TID 0000.0001) // ======================================================
(PID.TID 0000.0001) // Mapping of tiles to threads
(PID.TID 0000.0001) // ======================================================
(PID.TID 0000.0001) // -o- Thread   1, tiles (   1:   2,   1:   2)
(PID.TID 0000.0001) 
(PID.TID 0000.0001) // ======================================================
(PID.TID 0000.0001) // Tile <-> Tile connectvity table
(PID.TID 0000.0001) // ======================================================
(PID.TID 0000.0001) // Tile number: 000001 (process no. = 000001)
(PID.TID 0000.0001) //        WEST: Tile = 000002, Process = 000001, Comm = put
(PID.TID 0000.0001) //                bi = 000002, bj = 000001
(PID.TID 0000.0001) //        EAST: Tile = 000002, Process = 000001, Comm = put
(PID.TID 0000.0001) //                bi = 000002, bj = 000001
(PID.TID 0000.0001) //       SOUTH: Tile = 000003, Process = 000001, Comm = put
(PID.TID 0000.0001) //                bi = 000001, bj = 000002
(PID.TID 0000.0001) //       NORTH: Tile = 000003, Process = 000001, Comm = put
(PID.TID 0000.0001) //                bi = 000001, bj = 000002
(PID.TID 0000.0001) // Tile number: 000002 (process no. = 000001)
(PID.TID 0000.0001) //        WEST: Tile = 000001, Process = 000001, Comm = put
(PID.TID 0000.0001) //                bi = 000001, bj = 000001
(PID.TID 0000.0001) //        EAST: Tile = 000001, Process = 000001, Comm = put
(PID.TID 0000.0001) //                bi = 000001, bj = 000001
(PID.TID 0000.0001) //       SOUTH: Tile = 000004, Process = 000001, Comm = put
(PID.TID 0000.0001) //                bi = 000002, bj = 000002
(PID.TID 0000.0001) //       NORTH: Tile = 000004, Process = 000001, Comm = put
(PID.TID 0000.0001) //                bi = 000002, bj = 000002
(PID.TID 0000.0001) // Tile number: 000003 (process no. = 000001)
(PID.TID 0000.0001) //        WEST: Tile = 000004, Process = 000001, Comm = put
(PID.TID 0000.0001) //                bi = 000002, bj = 000002
(PID.TID 0000.0001) //        EAST: Tile = 000004, Process = 000001, Comm = put
(PID.TID 0000.0001) //                bi = 000002, bj = 000002
(PID.TID 0000.0001) //       SOUTH: Tile = 000001, Process = 000001, Comm = put
(PID.TID 0000.0001) //                bi = 000001, bj = 000001
(PID.TID 0000.0001) //       NORTH: Tile = 000001, Process = 000001, Comm = put
(PID.TID 0000.0001) //                bi = 000001, bj = 000001
(PID.TID 0000.0001) // Tile number: 000004 (process no. = 000001)
(PID.TID 0000.0001) //        WEST: Tile = 000003, Process = 000001, Comm = put
(PID.TID 0000.0001) //                bi = 000001, bj = 000002
(PID.TID 0000.0001) //        EAST: Tile = 000003, Process = 000001, Comm = put
(PID.TID 0000.0001) //                bi = 000001, bj = 000002
(PID.TID 0000.0001) //       SOUTH: Tile = 000002, Process = 000001, Comm = put
(PID.TID 0000.0001) //                bi = 000002, bj = 000001
(PID.TID 0000.0001) //       NORTH: Tile = 000002, Process = 000001, Comm = put
(PID.TID 0000.0001) //                bi = 000002, bj = 000001
(PID.TID 0000.0001) 
(PID.TID 0000.0001) // =======================================================
(PID.TID 0000.0001) // Model parameter file "data"
(PID.TID 0000.0001) // =======================================================
(PID.TID 0000.0001) ># ====================
(PID.TID 0000.0001) ># | Model parameters |
(PID.TID 0000.0001) ># ====================
(PID.TID 0000.0001) >#
(PID.TID 0000.0001) ># Continuous equation parameters
(PID.TID 0000.0001) > &PARM01
(PID.TID 0000.0001) > tRef               = 3*23.,3*22.,21.,2*20.,19.,2*18.,17.,2*16.,15.,14.,13.,
(PID.TID 0000.0001) >                      12.,11.,2*9.,8.,7.
(PID.TID 0000.0001) > sRef               = 24*34.5,
(PID.TID 0000.0001) > viscAr= 6.0826e-04,
(PID.TID 0000.0001) > no_slip_sides=.FALSE.,
(PID.TID 0000.0001) > no_slip_bottom=.TRUE.,
(PID.TID 0000.0001) > diffKrT=1.e-6,
(PID.TID 0000.0001) > diffKrS=1.e-6,
(PID.TID 0000.0001) > rhonil=1027.5,
(PID.TID 0000.0001) > rhoConstFresh=999.8,
(PID.TID 0000.0001) > eosType='JMD95Z',
(PID.TID 0000.0001) > hFacMinDr=50.,
(PID.TID 0000.0001) > hFacMin=0.3,
(PID.TID 0000.0001) > hFacInf=0.1,
(PID.TID 0000.0001) > hFacSup=5.,
(PID.TID 0000.0001) ># select_rStar=2,
(PID.TID 0000.0001) ># nonlinFreeSurf=4,
(PID.TID 0000.0001) > implicitDiffusion=.TRUE.,
(PID.TID 0000.0001) > implicitViscosity=.TRUE.,
(PID.TID 0000.0001) > viscC4Leith=1.5,
(PID.TID 0000.0001) > viscC4Leithd=1.5,
(PID.TID 0000.0001) > viscA4GridMax=0.5,
(PID.TID 0000.0001) > useAreaViscLength=.TRUE.,
(PID.TID 0000.0001) > sideDragFactor=0.,
(PID.TID 0000.0001) > highOrderVorticity  = .TRUE.,
(PID.TID 0000.0001) > bottomDragQuadratic = 0.002,
(PID.TID 0000.0001) > tempAdvScheme=7,
(PID.TID 0000.0001) > saltAdvScheme=7,
(PID.TID 0000.0001) > StaggerTimeStep=.TRUE.,
(PID.TID 0000.0001) > multiDimAdvection=.TRUE.,
(PID.TID 0000.0001) > vectorInvariantMomentum=.TRUE.,
(PID.TID 0000.0001) > implicitFreeSurface=.TRUE.,
(PID.TID 0000.0001) > exactConserv=.TRUE.,
(PID.TID 0000.0001) >#debuglevel=-1,
(PID.TID 0000.0001) > convertFW2Salt=-1
(PID.TID 0000.0001) ># useRealFreshWaterFlux=.TRUE.,
(PID.TID 0000.0001) > useSingleCPUio=.TRUE.,
(PID.TID 0000.0001) > globalFiles=.TRUE.,
(PID.TID 0000.0001) > writeBinaryPrec=64,
(PID.TID 0000.0001) > /
(PID.TID 0000.0001) >
(PID.TID 0000.0001) ># Elliptic solver parameters
(PID.TID 0000.0001) > &PARM02
(PID.TID 0000.0001) > cg2dMaxIters=100,
(PID.TID 0000.0001) > cg2dTargetResidual=1.E-5,
(PID.TID 0000.0001) > /
(PID.TID 0000.0001) >
(PID.TID 0000.0001) ># Time stepping parameters
(PID.TID 0000.0001) > &PARM03
(PID.TID 0000.0001) ># 19930701
(PID.TID 0000.0001) >#niter0=0000039384,
(PID.TID 0000.0001) >#nTimeSteps=73,
(PID.TID 0000.0001) >#nTimeSteps=288,
(PID.TID 0000.0001) ># 19990301
(PID.TID 0000.0001) >#starttime=226022400.,
(PID.TID 0000.0001) >#endtime=226065600.,
(PID.TID 0000.0001) ># 19990301 1200
(PID.TID 0000.0001) > starttime=226065600.,
(PID.TID 0000.0001) > nTimeSteps=4,
(PID.TID 0000.0001) ># 19990301 1200
(PID.TID 0000.0001) >#starttime=36720000.,
(PID.TID 0000.0001) >#starttime=63158400.,
(PID.TID 0000.0001) >#starttime=94694400.,
(PID.TID 0000.0001) >#starttime=126230400.,
(PID.TID 0000.0001) >#starttime=157852800.,
(PID.TID 0000.0001) >#starttime=189388800.,
(PID.TID 0000.0001) >#starttime=220924800.,
(PID.TID 0000.0001) >#starttime=252460800.,
(PID.TID 0000.0001) >#starttime=284083200.,
(PID.TID 0000.0001) >#starttime=315619200.,
(PID.TID 0000.0001) ># 19930201
(PID.TID 0000.0001) >#endtime=34300800.,
(PID.TID 0000.0001) ># 19930301
(PID.TID 0000.0001) >#endtime=36720000.,
(PID.TID 0000.0001) ># 19930401
(PID.TID 0000.0001) >#endtime=39398400.,
(PID.TID 0000.0001) ># 19930501
(PID.TID 0000.0001) >#endtime=41990400.,
(PID.TID 0000.0001) ># 19930601
(PID.TID 0000.0001) >#endtime=44668800.,
(PID.TID 0000.0001) ># 19930701
(PID.TID 0000.0001) >#endtime=47260800.,
(PID.TID 0000.0001) ># 19930801
(PID.TID 0000.0001) >#endtime=49939200.,
(PID.TID 0000.0001) ># 19940101
(PID.TID 0000.0001) >#endtime=63158400.,
(PID.TID 0000.0001) ># 19950101
(PID.TID 0000.0001) >#endtime=94694400.,
(PID.TID 0000.0001) ># 19960101
(PID.TID 0000.0001) >#endtime=126230400.,
(PID.TID 0000.0001) ># 19970101
(PID.TID 0000.0001) >#endtime=157852800.,
(PID.TID 0000.0001) ># 19980101
(PID.TID 0000.0001) >#endtime=189388800.,
(PID.TID 0000.0001) ># 19990101
(PID.TID 0000.0001) >#endtime=220924800.,
(PID.TID 0000.0001) ># 19990301
(PID.TID 0000.0001) >#endtime=226022400.,
(PID.TID 0000.0001) ># 19990301 1200
(PID.TID 0000.0001) >#endtime=226065600.,
(PID.TID 0000.0001) ># 20000101
(PID.TID 0000.0001) >#endtime=252460800.,
(PID.TID 0000.0001) ># 20010101
(PID.TID 0000.0001) >#endtime=284083200.,
(PID.TID 0000.0001) ># 20020101
(PID.TID 0000.0001) >#endtime=315619200.,
(PID.TID 0000.0001) ># 20020701
(PID.TID 0000.0001) >#endtime=331257600.,
(PID.TID 0000.0001) >#endtime=347155200.,
(PID.TID 0000.0001) > abEps=0.1,
(PID.TID 0000.0001) > deltaT=1200,
(PID.TID 0000.0001) > cAdjFreq=0.,
(PID.TID 0000.0001) > pickupStrictlyMatch=.FALSE.,
(PID.TID 0000.0001) >#pChkptFreq=31536000.,
(PID.TID 0000.0001) > pChkptFreq=2678400.,
(PID.TID 0000.0001) > chkptFreq=2592000.,
(PID.TID 0000.0001) > tauSaltClimRelax = 8722203.,
(PID.TID 0000.0001) > monitorFreq=1200.,
(PID.TID 0000.0001) >#diagFreq=1200.,
(PID.TID 0000.0001) > forcing_In_AB = .FALSE.,
(PID.TID 0000.0001) > dumpInitAndLast=.FALSE.,
(PID.TID 0000.0001) > /
(PID.TID 0000.0001) >
(PID.TID 0000.0001) ># Gridding parameters
(PID.TID 0000.0001) > &PARM04
(PID.TID 0000.0001) > usingCartesianGrid=.FALSE.,
(PID.TID 0000.0001) > usingSphericalPolarGrid=.FALSE.,
(PID.TID 0000.0001) > usingCurvilinearGrid=.TRUE.,
(PID.TID 0000.0001) > delR   = 10.00, 10.00, 10.00, 10.00, 10.00, 10.00, 10.00, 10.01,
(PID.TID 0000.0001) > 10.03, 10.11, 10.32, 10.80, 11.76, 13.42, 16.04 , 19.82, 24.85,
(PID.TID 0000.0001) > 31.10, 38.42, 46.50, 55.00, 63.50, 71.58, 78.90
(PID.TID 0000.0001) > /
(PID.TID 0000.0001) >
(PID.TID 0000.0001) ># Input datasets
(PID.TID 0000.0001) > &PARM05
(PID.TID 0000.0001) > bathyFile      ='ETOPO2_76x72_baltic_corr',
(PID.TID 0000.0001) > hydrogThetaFile='',
(PID.TID 0000.0001) > hydrogSaltFile ='',
(PID.TID 0000.0001) > /
(PID.TID 0000.0001) 
(PID.TID 0000.0001) S/R INI_PARMS ; starts to read PARM01
(PID.TID 0000.0001) S/R INI_PARMS ; read PARM01 : OK
(PID.TID 0000.0001) S/R INI_PARMS ; starts to read PARM02
(PID.TID 0000.0001) S/R INI_PARMS ; read PARM02 : OK
(PID.TID 0000.0001) S/R INI_PARMS ; starts to read PARM03
(PID.TID 0000.0001) S/R INI_PARMS ; read PARM03 : OK
(PID.TID 0000.0001) S/R INI_PARMS ; starts to read PARM04
(PID.TID 0000.0001) S/R INI_PARMS ; read PARM04 : OK
(PID.TID 0000.0001) S/R INI_PARMS ; starts to read PARM05
(PID.TID 0000.0001) S/R INI_PARMS ; read PARM05 : OK
(PID.TID 0000.0001)  PACKAGES_BOOT: opening data.pkg
(PID.TID 0000.0001)  OPEN_COPY_DATA_FILE: opening file data.pkg
(PID.TID 0000.0001) // =======================================================
(PID.TID 0000.0001) // Parameter file "data.pkg"
(PID.TID 0000.0001) // =======================================================
(PID.TID 0000.0001) ># Packages
(PID.TID 0000.0001) > &PACKAGES
(PID.TID 0000.0001) > useEXF         = .TRUE.,
(PID.TID 0000.0001) > useSEAICE      = .TRUE.,
(PID.TID 0000.0001) > useKPP         = .TRUE.,
(PID.TID 0000.0001) > useDiagnostics = .TRUE.,
(PID.TID 0000.0001) > useOBCS        = .TRUE.,
(PID.TID 0000.0001) > usePTRACERS    = .TRUE.,
(PID.TID 0000.0001) > useGCHEM       = .TRUE.,
(PID.TID 0000.0001) > useMNC         = .FALSE.,
(PID.TID 0000.0001) > /
(PID.TID 0000.0001) 
(PID.TID 0000.0001)  PACKAGES_BOOT: finished reading data.pkg
(PID.TID 0000.0001) CAL_READPARMS: opening data.cal
(PID.TID 0000.0001)  OPEN_COPY_DATA_FILE: opening file data.cal
(PID.TID 0000.0001) // =======================================================
(PID.TID 0000.0001) // Parameter file "data.cal"
(PID.TID 0000.0001) // =======================================================
(PID.TID 0000.0001) >#
(PID.TID 0000.0001) ># *******************
(PID.TID 0000.0001) ># Calendar Parameters
(PID.TID 0000.0001) ># *******************
(PID.TID 0000.0001) > &CAL_NML
(PID.TID 0000.0001) > TheCalendar='gregorian',
(PID.TID 0000.0001) > startDate_1=19920101,
(PID.TID 0000.0001) > startDate_2=000000,
(PID.TID 0000.0001) > calendarDumps = .TRUE.
(PID.TID 0000.0001) > /
(PID.TID 0000.0001) 
(PID.TID 0000.0001) CAL_READPARMS: finished reading data.cal
(PID.TID 0000.0001) 
(PID.TID 0000.0001) // =======================================================
(PID.TID 0000.0001) // Calendar configuration >>> START <<<
(PID.TID 0000.0001) // =======================================================
(PID.TID 0000.0001) 
(PID.TID 0000.0001) Calendar version: 0.2.0
(PID.TID 0000.0001) 
(PID.TID 0000.0001) startTime =   /* Start time of the model integration [s] */
(PID.TID 0000.0001)                 2.260656000000000E+08
(PID.TID 0000.0001)     ;
(PID.TID 0000.0001) endTime =   /* End time of the model integration [s] */
(PID.TID 0000.0001)                 2.260704000000000E+08
(PID.TID 0000.0001)     ;
(PID.TID 0000.0001) deltatclock =   /* Time interval for a model forward step [s] */
(PID.TID 0000.0001)                 1.200000000000000E+03
(PID.TID 0000.0001)     ;
(PID.TID 0000.0001) usingGregorianCalendar =  /* Calendar Type: Gregorian Calendar */
(PID.TID 0000.0001)                   T
(PID.TID 0000.0001)     ;
(PID.TID 0000.0001) usingJulianCalendar =  /* Calendar Type: Julian Calendar */
(PID.TID 0000.0001)                   F
(PID.TID 0000.0001)     ;
(PID.TID 0000.0001) usingModelCalendar =  /* Calendar Type: Model Calendar */
(PID.TID 0000.0001)                   F
(PID.TID 0000.0001)     ;
(PID.TID 0000.0001) usingNoCalendar =  /* Calendar Type: No Calendar */
(PID.TID 0000.0001)                   F
(PID.TID 0000.0001)     ;
(PID.TID 0000.0001) modelstartdate (YYYYMMDD) =   /* Model start date YYYY-MM-DD  */
(PID.TID 0000.0001)                19990301
(PID.TID 0000.0001)     ;
(PID.TID 0000.0001) modelstartdate (HHMMSS) =   /* Model start date HH-MM-SS  */
(PID.TID 0000.0001)                  120000
(PID.TID 0000.0001)     ;
(PID.TID 0000.0001) modelenddate (YYYYMMDD) =   /* Model end date YYYY-MM-DD  */
(PID.TID 0000.0001)                19990301
(PID.TID 0000.0001)     ;
(PID.TID 0000.0001) modelenddate (HHMMSS) =   /* Model end date HH-MM-SS  */
(PID.TID 0000.0001)                  132000
(PID.TID 0000.0001)     ;
(PID.TID 0000.0001) intyears =   /* Number of calendar years affected by the integration  */
(PID.TID 0000.0001)                       1
(PID.TID 0000.0001)     ;
(PID.TID 0000.0001) intmonths =   /* Number of calendar months affected by the integration  */
(PID.TID 0000.0001)                       1
(PID.TID 0000.0001)     ;
(PID.TID 0000.0001) intdays =   /* Number of calendar days affected by the integration  */
(PID.TID 0000.0001)                       1
(PID.TID 0000.0001)     ;
(PID.TID 0000.0001) nIter0 =   /* Base timestep number  */
(PID.TID 0000.0001)                  188388
(PID.TID 0000.0001)     ;
(PID.TID 0000.0001) nEndIter =   /* Final timestep number  */
(PID.TID 0000.0001)                  188392
(PID.TID 0000.0001)     ;
(PID.TID 0000.0001) nTimeSteps =   /* Number of model timesteps  */
(PID.TID 0000.0001)                       4
(PID.TID 0000.0001)     ;
(PID.TID 0000.0001) 
(PID.TID 0000.0001) // =======================================================
(PID.TID 0000.0001) // Calendar configuration  >>> END <<<
(PID.TID 0000.0001) // =======================================================
(PID.TID 0000.0001) 
(PID.TID 0000.0001)  KPP_INIT: opening data.kpp
(PID.TID 0000.0001)  OPEN_COPY_DATA_FILE: opening file data.kpp
(PID.TID 0000.0001) // =======================================================
(PID.TID 0000.0001) // Parameter file "data.kpp"
(PID.TID 0000.0001) // =======================================================
(PID.TID 0000.0001) ># KPP parameters
(PID.TID 0000.0001) > &KPP_PARM01
(PID.TID 0000.0001) > KPPmixingMaps   = .FALSE.,
(PID.TID 0000.0001) > KPPwriteState   = .FALSE.,
(PID.TID 0000.0001) > kpp_dumpFreq    = 0.
(PID.TID 0000.0001) > kpp_tavefreq    = 0.
(PID.TID 0000.0001) > Ricr            = 0.3559
(PID.TID 0000.0001) > Riinfty         = 0.6998
(PID.TID 0000.0001) > /
(PID.TID 0000.0001) 
(PID.TID 0000.0001)  KPP_INIT: finished reading data.kpp
(PID.TID 0000.0001) 
(PID.TID 0000.0001)  SEAICE_READPARMS: opening data.seaice
(PID.TID 0000.0001)  OPEN_COPY_DATA_FILE: opening file data.seaice
(PID.TID 0000.0001) // =======================================================
(PID.TID 0000.0001) // Parameter file "data.seaice"
(PID.TID 0000.0001) // =======================================================
(PID.TID 0000.0001) ># SEAICE parameters
(PID.TID 0000.0001) > &SEAICE_PARM01
(PID.TID 0000.0001) >      SEAICE_dryIceAlb   = 0.8756,
(PID.TID 0000.0001) >      SEAICE_wetIceAlb   = 0.7856,
(PID.TID 0000.0001) >      SEAICE_drySnowAlb  = 0.9656,
(PID.TID 0000.0001) >      SEAICE_wetSnowAlb  = 0.8256,
(PID.TID 0000.0001) >      SEAICE_waterAlbedo = 0.2756,
(PID.TID 0000.0001) >      SEAICE_strength    = 2.6780e+04,
(PID.TID 0000.0001) >      OCEAN_drag         = 8.1541e-04,
(PID.TID 0000.0001) >      SEAICE_waterDrag   = 5.3508,
(PID.TID 0000.0001) >      LSR_ERROR          = 1e-13,
(PID.TID 0000.0001) >      SEAICEuseDYNAMICS  = .TRUE.,
(PID.TID 0000.0001) >      HeffFile           = '',
(PID.TID 0000.0001) >      SEAICE_freeze      = -1.7348,
(PID.TID 0000.0001) >      MIN_ATEMP          = -40.,
(PID.TID 0000.0001) >      MIN_TICE           = -40.,
(PID.TID 0000.0001) >      SEAICE_clipVelocities = .TRUE.,
(PID.TID 0000.0001) >      SEAICEadvSalt      = .FALSE.,
(PID.TID 0000.0001) >      SEAICEadvAge       = .FALSE.,
(PID.TID 0000.0001) >      SEAICEadvSnow      = .TRUE.,
(PID.TID 0000.0001) >      SEAICEuseFlooding  = .TRUE.,
(PID.TID 0000.0001) >      SEAICE_salinity    = 10.,
(PID.TID 0000.0001) >      ICE2WATR           = 0.92,
(PID.TID 0000.0001) >#      SEAICE_deltaTevp   = 1.,
(PID.TID 0000.0001) >#      SEAICE_evpTauRelax = 3600.,
(PID.TID 0000.0001) >#      SEAICE_evpDampC    = 615.,
(PID.TID 0000.0001) > /
(PID.TID 0000.0001) 
(PID.TID 0000.0001)  SEAICE_READPARMS: finished reading data.seaice
(PID.TID 0000.0001) 
(PID.TID 0000.0001) // =======================================================
(PID.TID 0000.0001) // Seaice configuration (SEAICE_PARM01) >>> START <<<
(PID.TID 0000.0001) // =======================================================
(PID.TID 0000.0001) 
(PID.TID 0000.0001) model grid type   = /* type of sea ice model grid */
(PID.TID 0000.0001)               'C-GRID'
(PID.TID 0000.0001)     ;
(PID.TID 0000.0001) SEAICEwriteState  = /* write sea ice state to file */
(PID.TID 0000.0001)                   F
(PID.TID 0000.0001)     ;
(PID.TID 0000.0001) SEAICEuseDYNAMICS = /* use dynamics */
(PID.TID 0000.0001)                   T
(PID.TID 0000.0001)     ;
(PID.TID 0000.0001) SEAICEuseTEM      = /* use truncated ellipse rheology */
(PID.TID 0000.0001)                   F
(PID.TID 0000.0001)     ;
(PID.TID 0000.0001) SEAICEuseMetricTerms = /* use metric terms */
(PID.TID 0000.0001)                   T
(PID.TID 0000.0001)     ;
(PID.TID 0000.0001) SEAICE_no_slip    = /* no slip boundary conditions */
(PID.TID 0000.0001)                   F
(PID.TID 0000.0001)     ;
(PID.TID 0000.0001) SEAICE_maskRHS    = /* mask RHS of solver */
(PID.TID 0000.0001)                   F
(PID.TID 0000.0001)     ;
(PID.TID 0000.0001) SEAICE_clipVeloctities = /* impose max. vels. */
(PID.TID 0000.0001)                   T
(PID.TID 0000.0001)     ;
(PID.TID 0000.0001) useHB87stressCoupling  = /* altern. ice-ocean stress */
(PID.TID 0000.0001)                   F
(PID.TID 0000.0001)     ;
(PID.TID 0000.0001) SEAICErestoreUnderIce  = /* restore T and S under ice */
(PID.TID 0000.0001)                   F
(PID.TID 0000.0001)     ;
(PID.TID 0000.0001) usePW79thermodynamics  = /* default 0-layer TD */
(PID.TID 0000.0001)                   T
(PID.TID 0000.0001)     ;
(PID.TID 0000.0001) SEAICEadvHeff = /* advect effective ice thickness */
(PID.TID 0000.0001)                   T
(PID.TID 0000.0001)     ;
(PID.TID 0000.0001) SEAICEadvArea = /* advect fractional ice area */
(PID.TID 0000.0001)                   T
(PID.TID 0000.0001)     ;
(PID.TID 0000.0001) SEAICEadvSnow = /* advect snow layer together with ice */
(PID.TID 0000.0001)                   T
(PID.TID 0000.0001)     ;
(PID.TID 0000.0001) SEAICEadvSalt = /* advect salinity together with ice */
(PID.TID 0000.0001)                   F
(PID.TID 0000.0001)     ;
(PID.TID 0000.0001) SEAICEuseFlooding = /* turn submerged snow into ice */
(PID.TID 0000.0001)                   T
(PID.TID 0000.0001)     ;
(PID.TID 0000.0001) LAD               = /* time stepping scheme */
(PID.TID 0000.0001)                       2
(PID.TID 0000.0001)     ;
(PID.TID 0000.0001) IMAX_TICE         = /* iterations for ice heat budget */
(PID.TID 0000.0001)                      10
(PID.TID 0000.0001)     ;
(PID.TID 0000.0001) SEAICEadvScheme   = /* advection scheme for ice */
(PID.TID 0000.0001)                       2
(PID.TID 0000.0001)     ;
(PID.TID 0000.0001) SEAICEuseFluxForm = /* advection in FV flux form */
(PID.TID 0000.0001)                   F
(PID.TID 0000.0001)     ;
(PID.TID 0000.0001) SEAICEadvSchArea   = /* advection scheme for area */
(PID.TID 0000.0001)                       2
(PID.TID 0000.0001)     ;
(PID.TID 0000.0001) SEAICEadvSchHeff   = /* advection scheme for thickness */
(PID.TID 0000.0001)                       2
(PID.TID 0000.0001)     ;
(PID.TID 0000.0001) SEAICEadvSchSnow   = /* advection scheme for snow */
(PID.TID 0000.0001)                       2
(PID.TID 0000.0001)     ;
(PID.TID 0000.0001) SEAICE_deltaTtherm= /* thermodynamic timestep */
(PID.TID 0000.0001)                 1.200000000000000E+03
(PID.TID 0000.0001)     ;
(PID.TID 0000.0001) SEAICE_deltaTdyn  = /* dynamic timestep */
(PID.TID 0000.0001)                 1.200000000000000E+03
(PID.TID 0000.0001)     ;
(PID.TID 0000.0001) SEAICE_availHeatFrac = /* fraction used from melting */
(PID.TID 0000.0001)                 1.000000000000000E+00
(PID.TID 0000.0001)     ;
(PID.TID 0000.0001) SEAICE_gamma_t    = /* melting timescale due to warm ML*/
(PID.TID 0000.0001)                 1.234567000000000E+05
(PID.TID 0000.0001)     ;
(PID.TID 0000.0001) SEAICE_zetaMin    = /* lower bound for viscosity */
(PID.TID 0000.0001)                 0.000000000000000E+00
(PID.TID 0000.0001)     ;
(PID.TID 0000.0001) SEAICE_monFreq  = /* monitor frequency */
(PID.TID 0000.0001)                 1.200000000000000E+03
(PID.TID 0000.0001)     ;
(PID.TID 0000.0001) SEAICE_dumpFreq   = /* dump frequency */
(PID.TID 0000.0001)                 0.000000000000000E+00
(PID.TID 0000.0001)     ;
(PID.TID 0000.0001) SEAICE_taveFreq   = /* time-averaging frequency */
(PID.TID 0000.0001)                 0.000000000000000E+00
(PID.TID 0000.0001)     ;
(PID.TID 0000.0001) SEAICE_mon_stdio  = /* write monitor to std-outp */
(PID.TID 0000.0001)                   T
(PID.TID 0000.0001)     ;
(PID.TID 0000.0001) SEAICE_dump_mdsio = /* write snap-shot   using MDSIO */
(PID.TID 0000.0001)                   T
(PID.TID 0000.0001)     ;
(PID.TID 0000.0001) SEAICE_tave_mdsio = /* write TimeAverage using MDSIO */
(PID.TID 0000.0001)                   T
(PID.TID 0000.0001)     ;
(PID.TID 0000.0001) SEAICE_mon_mnc    = /* write monitor to netcdf file */
(PID.TID 0000.0001)                   F
(PID.TID 0000.0001)     ;
(PID.TID 0000.0001) SEAICE_dump_mnc   = /* write snap-shot   using MNC */
(PID.TID 0000.0001)                   F
(PID.TID 0000.0001)     ;
(PID.TID 0000.0001) SEAICE_tave_mnc   = /* write TimeAverage using MNC */
(PID.TID 0000.0001)                   F
(PID.TID 0000.0001)     ;
(PID.TID 0000.0001) SEAICE_initialHEFF= /* initial sea-ice thickness */
(PID.TID 0000.0001)                 0.000000000000000E+00
(PID.TID 0000.0001)     ;
(PID.TID 0000.0001) SEAICE_drag       = /* air-ice drag coefficient */
(PID.TID 0000.0001)                 2.000000000000000E-03
(PID.TID 0000.0001)     ;
(PID.TID 0000.0001) OCEAN_drag        = /* air-ocean drag coefficient */
(PID.TID 0000.0001)                 8.154100000000000E-04
(PID.TID 0000.0001)     ;
(PID.TID 0000.0001) SEAICE_waterDrag  = /* water-ice drag * density */
(PID.TID 0000.0001)                 5.350800000000000E+00
(PID.TID 0000.0001)     ;
(PID.TID 0000.0001) SEAICE_dryIceAlb  = /* winter albedo */
(PID.TID 0000.0001)                 8.756000000000000E-01
(PID.TID 0000.0001)     ;
(PID.TID 0000.0001) SEAICE_wetIceAlb  = /* summer albedo */
(PID.TID 0000.0001)                 7.856000000000000E-01
(PID.TID 0000.0001)     ;
(PID.TID 0000.0001) SEAICE_drySnowAlb = /* dry snow albedo */
(PID.TID 0000.0001)                 9.656000000000000E-01
(PID.TID 0000.0001)     ;
(PID.TID 0000.0001) SEAICE_wetSnowAlb = /* wet snow albedo */
(PID.TID 0000.0001)                 8.256000000000000E-01
(PID.TID 0000.0001)     ;
(PID.TID 0000.0001) SEAICE_waterAlbedo= /* water albedo */
(PID.TID 0000.0001)                 2.756000000000000E-01
(PID.TID 0000.0001)     ;
(PID.TID 0000.0001) SEAICE_strength   = /* sea-ice strength Pstar */
(PID.TID 0000.0001)                 2.678000000000000E+04
(PID.TID 0000.0001)     ;
(PID.TID 0000.0001) SEAICE_sensHeat   = /* sensible heat transfer */
(PID.TID 0000.0001)                 2.284000000000000E+00
(PID.TID 0000.0001)     ;
(PID.TID 0000.0001) SEAICE_latentWater= /* latent heat transfer for water */
(PID.TID 0000.0001)                 5.687500000000000E+03
(PID.TID 0000.0001)     ;
(PID.TID 0000.0001) SEAICE_latentIce  = /* latent heat transfer for ice */
(PID.TID 0000.0001)                 6.447400000000000E+03
(PID.TID 0000.0001)     ;
(PID.TID 0000.0001) SEAICE_iceConduct = /* sea-ice conductivity */
(PID.TID 0000.0001)                 2.165600000000000E+00
(PID.TID 0000.0001)     ;
(PID.TID 0000.0001) SEAICE_snowConduct= /* snow conductivity */
(PID.TID 0000.0001)                 3.100000000000000E-01
(PID.TID 0000.0001)     ;
(PID.TID 0000.0001) SEAICE_emissivity = /* Stefan-Boltzman * emissivity */
(PID.TID 0000.0001)                 5.500000000000000E-08
(PID.TID 0000.0001)     ;
(PID.TID 0000.0001) SEAICE_snowThick  = /* cutoff snow thickness */
(PID.TID 0000.0001)                 1.500000000000000E-01
(PID.TID 0000.0001)     ;
(PID.TID 0000.0001) SEAICE_shortwave  = /* penetration shortwave radiation */
(PID.TID 0000.0001)                 3.000000000000000E-01
(PID.TID 0000.0001)     ;
(PID.TID 0000.0001) SEAICE_freeze     = /* freezing temp. of sea water */
(PID.TID 0000.0001)                -1.734800000000000E+00
(PID.TID 0000.0001)     ;
(PID.TID 0000.0001) Initial sea-ice concentration is read from file:
(PID.TID 0000.0001)    >>    <<
(PID.TID 0000.0001) Initial sea-ice thickness is read from file:
(PID.TID 0000.0001)    >>    <<
(PID.TID 0000.0001)     ;
(PID.TID 0000.0001) SOLV_MAX_ITERS    = /* max. number of LSR solver steps */
(PID.TID 0000.0001)                    1500
(PID.TID 0000.0001)     ;
(PID.TID 0000.0001) SOLV_NCHECK       = /* test interval for LSR solver */
(PID.TID 0000.0001)                       2
(PID.TID 0000.0001)     ;
(PID.TID 0000.0001) NPSEUDOTIMESTEPS  = /* num. of extra pseudo time steps */
(PID.TID 0000.0001)                       0
(PID.TID 0000.0001)     ;
(PID.TID 0000.0001) LSR_ERROR         = /* sets accuracy of LSR solver */
(PID.TID 0000.0001)                 1.000000000000000E-13
(PID.TID 0000.0001)     ;
(PID.TID 0000.0001) DIFF1             = /* parameter used in advect.F */
(PID.TID 0000.0001)                 4.000000000000000E-03
(PID.TID 0000.0001)     ;
(PID.TID 0000.0001) A22               = /* parameter used in growth.F */
(PID.TID 0000.0001)                 1.500000000000000E-01
(PID.TID 0000.0001)     ;
(PID.TID 0000.0001) HO                = /* demarcation ice thickness */
(PID.TID 0000.0001)                 5.000000000000000E-01
(PID.TID 0000.0001)     ;
(PID.TID 0000.0001) MAX_HEFF          = /* maximum ice thickness */
(PID.TID 0000.0001)                 1.000000000000000E+01
(PID.TID 0000.0001)     ;
(PID.TID 0000.0001) MIN_ATEMP         = /* minimum air temperature */
(PID.TID 0000.0001)                -4.000000000000000E+01
(PID.TID 0000.0001)     ;
(PID.TID 0000.0001) MIN_LWDOWN        = /* minimum downward longwave */
(PID.TID 0000.0001)                 6.000000000000000E+01
(PID.TID 0000.0001)     ;
(PID.TID 0000.0001) MAX_TICE          = /* maximum ice temperature */
(PID.TID 0000.0001)                 3.000000000000000E+01
(PID.TID 0000.0001)     ;
(PID.TID 0000.0001) MIN_TICE          = /* minimum ice temperature */
(PID.TID 0000.0001)                -4.000000000000000E+01
(PID.TID 0000.0001)     ;
(PID.TID 0000.0001) SEAICE_EPS        = /* reduce derivative singularities */
(PID.TID 0000.0001)                 1.000000000000000E-10
(PID.TID 0000.0001)     ;
(PID.TID 0000.0001) // =======================================================
(PID.TID 0000.0001) // Seaice configuration (SEAICE_PARM01) >>> END <<<
(PID.TID 0000.0001) // =======================================================
(PID.TID 0000.0001)  OPEN_COPY_DATA_FILE: opening file data.obcs
(PID.TID 0000.0001) // =======================================================
(PID.TID 0000.0001) // Parameter file "data.obcs"
(PID.TID 0000.0001) // =======================================================
(PID.TID 0000.0001) >#
(PID.TID 0000.0001) ># ***************
(PID.TID 0000.0001) ># Open boundaries
(PID.TID 0000.0001) ># ***************
(PID.TID 0000.0001) > &OBCS_PARM01
(PID.TID 0000.0001) > OB_Jnorth =   76*72,
(PID.TID 0000.0001) > OB_Iwest  =   72*1,
(PID.TID 0000.0001) >#
(PID.TID 0000.0001) >#OBCSfixTopo=.false.,
(PID.TID 0000.0001) >#
(PID.TID 0000.0001) > useOBCSprescribe=.TRUE.,
(PID.TID 0000.0001) >#
(PID.TID 0000.0001) > OBNsFile='OBNs_baltic_76x72.stable',
(PID.TID 0000.0001) > OBNtFile='OBNt_baltic_76x72.stable',
(PID.TID 0000.0001) > OBNuFile='OBNu_baltic_76x72.bin',
(PID.TID 0000.0001) > OBNvFile='OBNv_baltic_76x72.bin',
(PID.TID 0000.0001) > OBWsFile='OBWs_baltic_76x72.stable',
(PID.TID 0000.0001) > OBWtFile='OBWt_baltic_76x72.stable',
(PID.TID 0000.0001) > OBWuFile='OBWu_baltic_76x72.bin',
(PID.TID 0000.0001) > OBWvFile='OBWv_baltic_76x72.bin',
(PID.TID 0000.0001) > OBNptrFile(1)='OBN_PO4_76x72x24_baltic_128.bin',
(PID.TID 0000.0001) > OBWptrFile(1)='OBW_PO4_76x72x24_baltic_128.bin',
(PID.TID 0000.0001) > OBNptrFile(2)='OBN_NO3_76x72x24_baltic_128.bin',
(PID.TID 0000.0001) > OBWptrFile(2)='OBW_NO3_76x72x24_baltic_128.bin',
(PID.TID 0000.0001) > OBNptrFile(3)='OBN_FeT_76x72x24_baltic_128.bin',
(PID.TID 0000.0001) > OBWptrFile(3)='OBW_FeT_76x72x24_baltic_128.bin',
(PID.TID 0000.0001) > OBNptrFile(4)='OBN_SiO2_76x72x24_baltic_128.bin',
(PID.TID 0000.0001) > OBWptrFile(4)='OBW_SiO2_76x72x24_baltic_128.bin',
(PID.TID 0000.0001) > OBNptrFile(5)='OBN_DOP_76x72x24_baltic_128.bin',
(PID.TID 0000.0001) > OBWptrFile(5)='OBW_DOP_76x72x24_baltic_128.bin',
(PID.TID 0000.0001) > OBNptrFile(6)='OBN_DON_76x72x24_baltic_128.bin',
(PID.TID 0000.0001) > OBWptrFile(6)='OBW_DON_76x72x24_baltic_128.bin',
(PID.TID 0000.0001) > OBNptrFile(7)='OBN_DOFe_76x72x24_baltic_128.bin',
(PID.TID 0000.0001) > OBWptrFile(7)='OBW_DOFe_76x72x24_baltic_128.bin',
(PID.TID 0000.0001) > OBNptrFile(8)='OBN_ZOO1P_76x72x24_baltic_128.bin',
(PID.TID 0000.0001) > OBWptrFile(8)='OBW_ZOO1P_76x72x24_baltic_128.bin',
(PID.TID 0000.0001) > OBNptrFile(9)='OBN_ZOO1N_76x72x24_baltic_128.bin',
(PID.TID 0000.0001) > OBWptrFile(9)='OBW_ZOO1N_76x72x24_baltic_128.bin',
(PID.TID 0000.0001) > OBNptrFile(10)='OBN_ZOO1Fe_76x72x24_baltic_128.bin',
(PID.TID 0000.0001) > OBWptrFile(10)='OBW_ZOO1Fe_76x72x24_baltic_128.bin',
(PID.TID 0000.0001) > OBNptrFile(11)='OBN_ZOO1Si_76x72x24_baltic_128.bin',
(PID.TID 0000.0001) > OBWptrFile(11)='OBW_ZOO1Si_76x72x24_baltic_128.bin',
(PID.TID 0000.0001) > OBNptrFile(12)='OBN_ZOO2P_76x72x24_baltic_128.bin',
(PID.TID 0000.0001) > OBWptrFile(12)='OBW_ZOO2P_76x72x24_baltic_128.bin',
(PID.TID 0000.0001) > OBNptrFile(13)='OBN_ZOO2N_76x72x24_baltic_128.bin',
(PID.TID 0000.0001) > OBWptrFile(13)='OBW_ZOO2N_76x72x24_baltic_128.bin',
(PID.TID 0000.0001) > OBNptrFile(14)='OBN_ZOO2Fe_76x72x24_baltic_128.bin',
(PID.TID 0000.0001) > OBWptrFile(14)='OBW_ZOO2Fe_76x72x24_baltic_128.bin',
(PID.TID 0000.0001) > OBNptrFile(15)='OBN_ZOO2Si_76x72x24_baltic_128.bin',
(PID.TID 0000.0001) > OBWptrFile(15)='OBW_ZOO2Si_76x72x24_baltic_128.bin',
(PID.TID 0000.0001) > OBNptrFile(16)='OBN_POP_76x72x24_baltic_128.bin',
(PID.TID 0000.0001) > OBWptrFile(16)='OBW_POP_76x72x24_baltic_128.bin',
(PID.TID 0000.0001) > OBNptrFile(17)='OBN_PON_76x72x24_baltic_128.bin',
(PID.TID 0000.0001) > OBWptrFile(17)='OBW_PON_76x72x24_baltic_128.bin',
(PID.TID 0000.0001) > OBNptrFile(18)='OBN_POFe_76x72x24_baltic_128.bin',
(PID.TID 0000.0001) > OBWptrFile(18)='OBW_POFe_76x72x24_baltic_128.bin',
(PID.TID 0000.0001) > OBNptrFile(19)='OBN_POSi_76x72x24_baltic_128.bin',
(PID.TID 0000.0001) > OBWptrFile(19)='OBW_POSi_76x72x24_baltic_128.bin',
(PID.TID 0000.0001) > OBNptrFile(20)='OBN_NH4_76x72x24_baltic_128.bin',
(PID.TID 0000.0001) > OBWptrFile(20)='OBW_NH4_76x72x24_baltic_128.bin',
(PID.TID 0000.0001) > OBNptrFile(21)='OBN_NO2_76x72x24_baltic_128.bin',
(PID.TID 0000.0001) > OBWptrFile(21)='OBW_NO2_76x72x24_baltic_128.bin',
(PID.TID 0000.0001) > OBNptrFile(22)='OBN_Phy01_76x72x24_baltic_128.bin',
(PID.TID 0000.0001) > OBWptrFile(22)='OBW_Phy01_76x72x24_baltic_128.bin',
(PID.TID 0000.0001) > OBNptrFile(23)='OBN_Phy02_76x72x24_baltic_128.bin',
(PID.TID 0000.0001) > OBWptrFile(23)='OBW_Phy02_76x72x24_baltic_128.bin',
(PID.TID 0000.0001) > OBNptrFile(24)='OBN_Phy03_76x72x24_baltic_128.bin',
(PID.TID 0000.0001) > OBWptrFile(24)='OBW_Phy03_76x72x24_baltic_128.bin',
(PID.TID 0000.0001) > OBNptrFile(25)='OBN_Phy04_76x72x24_baltic_128.bin',
(PID.TID 0000.0001) > OBWptrFile(25)='OBW_Phy04_76x72x24_baltic_128.bin',
(PID.TID 0000.0001) > OBNptrFile(26)='OBN_Phy05_76x72x24_baltic_128.bin',
(PID.TID 0000.0001) > OBWptrFile(26)='OBW_Phy05_76x72x24_baltic_128.bin',
(PID.TID 0000.0001) > OBNptrFile(27)='OBN_Phy06_76x72x24_baltic_128.bin',
(PID.TID 0000.0001) > OBWptrFile(27)='OBW_Phy06_76x72x24_baltic_128.bin',
(PID.TID 0000.0001) > OBNptrFile(28)='OBN_Phy07_76x72x24_baltic_128.bin',
(PID.TID 0000.0001) > OBWptrFile(28)='OBW_Phy07_76x72x24_baltic_128.bin',
(PID.TID 0000.0001) > OBNptrFile(29)='OBN_Phy08_76x72x24_baltic_128.bin',
(PID.TID 0000.0001) > OBWptrFile(29)='OBW_Phy08_76x72x24_baltic_128.bin',
(PID.TID 0000.0001) > OBNptrFile(30)='OBN_Phy09_76x72x24_baltic_128.bin',
(PID.TID 0000.0001) > OBWptrFile(30)='OBW_Phy09_76x72x24_baltic_128.bin',
(PID.TID 0000.0001) > OBNptrFile(31)='OBN_Phy10_76x72x24_baltic_128.bin',
(PID.TID 0000.0001) > OBWptrFile(31)='OBW_Phy10_76x72x24_baltic_128.bin',
(PID.TID 0000.0001) > OBNptrFile(32)='OBN_Phy11_76x72x24_baltic_128.bin',
(PID.TID 0000.0001) > OBWptrFile(32)='OBW_Phy11_76x72x24_baltic_128.bin',
(PID.TID 0000.0001) > OBNptrFile(33)='OBN_Phy12_76x72x24_baltic_128.bin',
(PID.TID 0000.0001) > OBWptrFile(33)='OBW_Phy12_76x72x24_baltic_128.bin',
(PID.TID 0000.0001) > OBNptrFile(34)='OBN_Phy13_76x72x24_baltic_128.bin',
(PID.TID 0000.0001) > OBWptrFile(34)='OBW_Phy13_76x72x24_baltic_128.bin',
(PID.TID 0000.0001) > OBNptrFile(35)='OBN_Phy14_76x72x24_baltic_128.bin',
(PID.TID 0000.0001) > OBWptrFile(35)='OBW_Phy14_76x72x24_baltic_128.bin',
(PID.TID 0000.0001) > OBNptrFile(36)='OBN_Phy15_76x72x24_baltic_128.bin',
(PID.TID 0000.0001) > OBWptrFile(36)='OBW_Phy15_76x72x24_baltic_128.bin',
(PID.TID 0000.0001) > OBNptrFile(37)='OBN_Phy16_76x72x24_baltic_128.bin',
(PID.TID 0000.0001) > OBWptrFile(37)='OBW_Phy16_76x72x24_baltic_128.bin',
(PID.TID 0000.0001) > OBNptrFile(38)='OBN_Phy17_76x72x24_baltic_128.bin',
(PID.TID 0000.0001) > OBWptrFile(38)='OBW_Phy17_76x72x24_baltic_128.bin',
(PID.TID 0000.0001) > OBNptrFile(39)='OBN_Phy18_76x72x24_baltic_128.bin',
(PID.TID 0000.0001) > OBWptrFile(39)='OBW_Phy18_76x72x24_baltic_128.bin',
(PID.TID 0000.0001) > OBNptrFile(40)='OBN_Phy19_76x72x24_baltic_128.bin',
(PID.TID 0000.0001) > OBWptrFile(40)='OBW_Phy19_76x72x24_baltic_128.bin',
(PID.TID 0000.0001) > OBNptrFile(41)='OBN_Phy20_76x72x24_baltic_128.bin',
(PID.TID 0000.0001) > OBWptrFile(41)='OBW_Phy20_76x72x24_baltic_128.bin',
(PID.TID 0000.0001) > OBNptrFile(42)='OBN_Phy21_76x72x24_baltic_128.bin',
(PID.TID 0000.0001) > OBWptrFile(42)='OBW_Phy21_76x72x24_baltic_128.bin',
(PID.TID 0000.0001) > OBNptrFile(43)='OBN_Phy22_76x72x24_baltic_128.bin',
(PID.TID 0000.0001) > OBWptrFile(43)='OBW_Phy22_76x72x24_baltic_128.bin',
(PID.TID 0000.0001) > OBNptrFile(44)='OBN_Phy23_76x72x24_baltic_128.bin',
(PID.TID 0000.0001) > OBWptrFile(44)='OBW_Phy23_76x72x24_baltic_128.bin',
(PID.TID 0000.0001) > OBNptrFile(45)='OBN_Phy24_76x72x24_baltic_128.bin',
(PID.TID 0000.0001) > OBWptrFile(45)='OBW_Phy24_76x72x24_baltic_128.bin',
(PID.TID 0000.0001) > OBNptrFile(46)='OBN_Phy25_76x72x24_baltic_128.bin',
(PID.TID 0000.0001) > OBWptrFile(46)='OBW_Phy25_76x72x24_baltic_128.bin',
(PID.TID 0000.0001) > OBNptrFile(47)='OBN_Phy26_76x72x24_baltic_128.bin',
(PID.TID 0000.0001) > OBWptrFile(47)='OBW_Phy26_76x72x24_baltic_128.bin',
(PID.TID 0000.0001) > OBNptrFile(48)='OBN_Phy27_76x72x24_baltic_128.bin',
(PID.TID 0000.0001) > OBWptrFile(48)='OBW_Phy27_76x72x24_baltic_128.bin',
(PID.TID 0000.0001) > OBNptrFile(49)='OBN_Phy28_76x72x24_baltic_128.bin',
(PID.TID 0000.0001) > OBWptrFile(49)='OBW_Phy28_76x72x24_baltic_128.bin',
(PID.TID 0000.0001) > OBNptrFile(50)='OBN_Phy29_76x72x24_baltic_128.bin',
(PID.TID 0000.0001) > OBWptrFile(50)='OBW_Phy29_76x72x24_baltic_128.bin',
(PID.TID 0000.0001) > OBNptrFile(51)='OBN_Phy30_76x72x24_baltic_128.bin',
(PID.TID 0000.0001) > OBWptrFile(51)='OBW_Phy30_76x72x24_baltic_128.bin',
(PID.TID 0000.0001) > OBNptrFile(52)='OBN_Phy31_76x72x24_baltic_128.bin',
(PID.TID 0000.0001) > OBWptrFile(52)='OBW_Phy31_76x72x24_baltic_128.bin',
(PID.TID 0000.0001) > OBNptrFile(53)='OBN_Phy32_76x72x24_baltic_128.bin',
(PID.TID 0000.0001) > OBWptrFile(53)='OBW_Phy32_76x72x24_baltic_128.bin',
(PID.TID 0000.0001) > OBNptrFile(54)='OBN_Phy33_76x72x24_baltic_128.bin',
(PID.TID 0000.0001) > OBWptrFile(54)='OBW_Phy33_76x72x24_baltic_128.bin',
(PID.TID 0000.0001) > OBNptrFile(55)='OBN_Phy34_76x72x24_baltic_128.bin',
(PID.TID 0000.0001) > OBWptrFile(55)='OBW_Phy34_76x72x24_baltic_128.bin',
(PID.TID 0000.0001) > OBNptrFile(56)='OBN_Phy35_76x72x24_baltic_128.bin',
(PID.TID 0000.0001) > OBWptrFile(56)='OBW_Phy35_76x72x24_baltic_128.bin',
(PID.TID 0000.0001) > OBNptrFile(57)='OBN_Phy36_76x72x24_baltic_128.bin',
(PID.TID 0000.0001) > OBWptrFile(57)='OBW_Phy36_76x72x24_baltic_128.bin',
(PID.TID 0000.0001) > OBNptrFile(58)='OBN_Phy37_76x72x24_baltic_128.bin',
(PID.TID 0000.0001) > OBWptrFile(58)='OBW_Phy37_76x72x24_baltic_128.bin',
(PID.TID 0000.0001) > OBNptrFile(59)='OBN_Phy38_76x72x24_baltic_128.bin',
(PID.TID 0000.0001) > OBWptrFile(59)='OBW_Phy38_76x72x24_baltic_128.bin',
(PID.TID 0000.0001) > OBNptrFile(60)='OBN_Phy39_76x72x24_baltic_128.bin',
(PID.TID 0000.0001) > OBWptrFile(60)='OBW_Phy39_76x72x24_baltic_128.bin',
(PID.TID 0000.0001) > OBNptrFile(61)='OBN_Phy40_76x72x24_baltic_128.bin',
(PID.TID 0000.0001) > OBWptrFile(61)='OBW_Phy40_76x72x24_baltic_128.bin',
(PID.TID 0000.0001) > OBNptrFile(62)='OBN_Phy41_76x72x24_baltic_128.bin',
(PID.TID 0000.0001) > OBWptrFile(62)='OBW_Phy41_76x72x24_baltic_128.bin',
(PID.TID 0000.0001) > OBNptrFile(63)='OBN_Phy42_76x72x24_baltic_128.bin',
(PID.TID 0000.0001) > OBWptrFile(63)='OBW_Phy42_76x72x24_baltic_128.bin',
(PID.TID 0000.0001) > OBNptrFile(64)='OBN_Phy43_76x72x24_baltic_128.bin',
(PID.TID 0000.0001) > OBWptrFile(64)='OBW_Phy43_76x72x24_baltic_128.bin',
(PID.TID 0000.0001) > OBNptrFile(65)='OBN_Phy44_76x72x24_baltic_128.bin',
(PID.TID 0000.0001) > OBWptrFile(65)='OBW_Phy44_76x72x24_baltic_128.bin',
(PID.TID 0000.0001) > OBNptrFile(66)='OBN_Phy45_76x72x24_baltic_128.bin',
(PID.TID 0000.0001) > OBWptrFile(66)='OBW_Phy45_76x72x24_baltic_128.bin',
(PID.TID 0000.0001) > OBNptrFile(67)='OBN_Phy46_76x72x24_baltic_128.bin',
(PID.TID 0000.0001) > OBWptrFile(67)='OBW_Phy46_76x72x24_baltic_128.bin',
(PID.TID 0000.0001) > OBNptrFile(68)='OBN_Phy47_76x72x24_baltic_128.bin',
(PID.TID 0000.0001) > OBWptrFile(68)='OBW_Phy47_76x72x24_baltic_128.bin',
(PID.TID 0000.0001) > OBNptrFile(69)='OBN_Phy48_76x72x24_baltic_128.bin',
(PID.TID 0000.0001) > OBWptrFile(69)='OBW_Phy48_76x72x24_baltic_128.bin',
(PID.TID 0000.0001) > OBNptrFile(70)='OBN_Phy49_76x72x24_baltic_128.bin',
(PID.TID 0000.0001) > OBWptrFile(70)='OBW_Phy49_76x72x24_baltic_128.bin',
(PID.TID 0000.0001) > OBNptrFile(71)='OBN_Phy50_76x72x24_baltic_128.bin',
(PID.TID 0000.0001) > OBWptrFile(71)='OBW_Phy50_76x72x24_baltic_128.bin',
(PID.TID 0000.0001) > OBNptrFile(72)='OBN_Phy51_76x72x24_baltic_128.bin',
(PID.TID 0000.0001) > OBWptrFile(72)='OBW_Phy51_76x72x24_baltic_128.bin',
(PID.TID 0000.0001) > OBNptrFile(73)='OBN_Phy52_76x72x24_baltic_128.bin',
(PID.TID 0000.0001) > OBWptrFile(73)='OBW_Phy52_76x72x24_baltic_128.bin',
(PID.TID 0000.0001) > OBNptrFile(74)='OBN_Phy53_76x72x24_baltic_128.bin',
(PID.TID 0000.0001) > OBWptrFile(74)='OBW_Phy53_76x72x24_baltic_128.bin',
(PID.TID 0000.0001) > OBNptrFile(75)='OBN_Phy54_76x72x24_baltic_128.bin',
(PID.TID 0000.0001) > OBWptrFile(75)='OBW_Phy54_76x72x24_baltic_128.bin',
(PID.TID 0000.0001) > OBNptrFile(76)='OBN_Phy55_76x72x24_baltic_128.bin',
(PID.TID 0000.0001) > OBWptrFile(76)='OBW_Phy55_76x72x24_baltic_128.bin',
(PID.TID 0000.0001) > OBNptrFile(77)='OBN_Phy56_76x72x24_baltic_128.bin',
(PID.TID 0000.0001) > OBWptrFile(77)='OBW_Phy56_76x72x24_baltic_128.bin',
(PID.TID 0000.0001) > OBNptrFile(78)='OBN_Phy57_76x72x24_baltic_128.bin',
(PID.TID 0000.0001) > OBWptrFile(78)='OBW_Phy57_76x72x24_baltic_128.bin',
(PID.TID 0000.0001) > OBNptrFile(79)='OBN_Phy58_76x72x24_baltic_128.bin',
(PID.TID 0000.0001) > OBWptrFile(79)='OBW_Phy58_76x72x24_baltic_128.bin',
(PID.TID 0000.0001) > OBNptrFile(80)='OBN_Phy59_76x72x24_baltic_128.bin',
(PID.TID 0000.0001) > OBWptrFile(80)='OBW_Phy59_76x72x24_baltic_128.bin',
(PID.TID 0000.0001) > OBNptrFile(81)='OBN_Phy60_76x72x24_baltic_128.bin',
(PID.TID 0000.0001) > OBWptrFile(81)='OBW_Phy60_76x72x24_baltic_128.bin',
(PID.TID 0000.0001) > OBNptrFile(82)='OBN_Phy61_76x72x24_baltic_128.bin',
(PID.TID 0000.0001) > OBWptrFile(82)='OBW_Phy61_76x72x24_baltic_128.bin',
(PID.TID 0000.0001) > OBNptrFile(83)='OBN_Phy62_76x72x24_baltic_128.bin',
(PID.TID 0000.0001) > OBWptrFile(83)='OBW_Phy62_76x72x24_baltic_128.bin',
(PID.TID 0000.0001) > OBNptrFile(84)='OBN_Phy63_76x72x24_baltic_128.bin',
(PID.TID 0000.0001) > OBWptrFile(84)='OBW_Phy63_76x72x24_baltic_128.bin',
(PID.TID 0000.0001) > OBNptrFile(85)='OBN_Phy64_76x72x24_baltic_128.bin',
(PID.TID 0000.0001) > OBWptrFile(85)='OBW_Phy64_76x72x24_baltic_128.bin',
(PID.TID 0000.0001) > OBNptrFile(86)='OBN_Phy65_76x72x24_baltic_128.bin',
(PID.TID 0000.0001) > OBWptrFile(86)='OBW_Phy65_76x72x24_baltic_128.bin',
(PID.TID 0000.0001) > OBNptrFile(87)='OBN_Phy66_76x72x24_baltic_128.bin',
(PID.TID 0000.0001) > OBWptrFile(87)='OBW_Phy66_76x72x24_baltic_128.bin',
(PID.TID 0000.0001) > OBNptrFile(88)='OBN_Phy67_76x72x24_baltic_128.bin',
(PID.TID 0000.0001) > OBWptrFile(88)='OBW_Phy67_76x72x24_baltic_128.bin',
(PID.TID 0000.0001) > OBNptrFile(89)='OBN_Phy68_76x72x24_baltic_128.bin',
(PID.TID 0000.0001) > OBWptrFile(89)='OBW_Phy68_76x72x24_baltic_128.bin',
(PID.TID 0000.0001) > OBNptrFile(90)='OBN_Phy69_76x72x24_baltic_128.bin',
(PID.TID 0000.0001) > OBWptrFile(90)='OBW_Phy69_76x72x24_baltic_128.bin',
(PID.TID 0000.0001) > OBNptrFile(91)='OBN_Phy70_76x72x24_baltic_128.bin',
(PID.TID 0000.0001) > OBWptrFile(91)='OBW_Phy70_76x72x24_baltic_128.bin',
(PID.TID 0000.0001) > OBNptrFile(92)='OBN_Phy71_76x72x24_baltic_128.bin',
(PID.TID 0000.0001) > OBWptrFile(92)='OBW_Phy71_76x72x24_baltic_128.bin',
(PID.TID 0000.0001) > OBNptrFile(93)='OBN_Phy72_76x72x24_baltic_128.bin',
(PID.TID 0000.0001) > OBWptrFile(93)='OBW_Phy72_76x72x24_baltic_128.bin',
(PID.TID 0000.0001) > OBNptrFile(94)='OBN_Phy73_76x72x24_baltic_128.bin',
(PID.TID 0000.0001) > OBWptrFile(94)='OBW_Phy73_76x72x24_baltic_128.bin',
(PID.TID 0000.0001) > OBNptrFile(95)='OBN_Phy74_76x72x24_baltic_128.bin',
(PID.TID 0000.0001) > OBWptrFile(95)='OBW_Phy74_76x72x24_baltic_128.bin',
(PID.TID 0000.0001) > OBNptrFile(96)='OBN_Phy75_76x72x24_baltic_128.bin',
(PID.TID 0000.0001) > OBWptrFile(96)='OBW_Phy75_76x72x24_baltic_128.bin',
(PID.TID 0000.0001) > OBNptrFile(97)='OBN_Phy76_76x72x24_baltic_128.bin',
(PID.TID 0000.0001) > OBWptrFile(97)='OBW_Phy76_76x72x24_baltic_128.bin',
(PID.TID 0000.0001) > OBNptrFile(98)='OBN_Phy77_76x72x24_baltic_128.bin',
(PID.TID 0000.0001) > OBWptrFile(98)='OBW_Phy77_76x72x24_baltic_128.bin',
(PID.TID 0000.0001) > OBNptrFile(99)='OBN_Phy78_76x72x24_baltic_128.bin',
(PID.TID 0000.0001) > OBWptrFile(99)='OBW_Phy78_76x72x24_baltic_128.bin',
(PID.TID 0000.0001) >#
(PID.TID 0000.0001) > /
(PID.TID 0000.0001) >
(PID.TID 0000.0001) ># *****************************************
(PID.TID 0000.0001) ># Orlanski Boundary Condition Parameters.
(PID.TID 0000.0001) ># *****************************************
(PID.TID 0000.0001) ># &OBCS_PARM02
(PID.TID 0000.0001) ># cvelTimeScale = 2000.,
(PID.TID 0000.0001) ># /
(PID.TID 0000.0001) >
(PID.TID 0000.0001) ># *****************************************
(PID.TID 0000.0001) ># Sponge Layer Parameters.
(PID.TID 0000.0001) ># *****************************************
(PID.TID 0000.0001) ># &OBCS_PARM03
(PID.TID 0000.0001) ># Urelaxobcsinner=7776000.E0,
(PID.TID 0000.0001) ># Urelaxobcsbound=2592000.E0,
(PID.TID 0000.0001) ># Vrelaxobcsinner=7776000.E0,
(PID.TID 0000.0001) ># Vrelaxobcsbound=2592000.E0,
(PID.TID 0000.0001) ># spongeThickness=10,
(PID.TID 0000.0001) ># /
(PID.TID 0000.0001) 
(PID.TID 0000.0001)  PTRACERS_READPARMS: opening data.ptracers
(PID.TID 0000.0001)  OPEN_COPY_DATA_FILE: opening file data.ptracers
(PID.TID 0000.0001) // =======================================================
(PID.TID 0000.0001) // Parameter file "data.ptracers"
(PID.TID 0000.0001) // =======================================================
(PID.TID 0000.0001) > &PTRACERS_PARM01
(PID.TID 0000.0001) > PTRACERS_numInUse=99,
(PID.TID 0000.0001) ># 366 days == 19930101 060000
(PID.TID 0000.0001) > PTRACERS_Iter0= 26352,
(PID.TID 0000.0001) ># tracer 1 - phosphate
(PID.TID 0000.0001) > PTRACERS_names(1)='PO4',
(PID.TID 0000.0001) > PTRACERS_units(1)='mmol P/m^3',
(PID.TID 0000.0001) > PTRACERS_advScheme(1)=33,
(PID.TID 0000.0001) > PTRACERS_diffKh(1)=0.E3,
(PID.TID 0000.0001) > PTRACERS_diffKr(1)=1.E-6,
(PID.TID 0000.0001) > PTRACERS_useKPP(1)=.TRUE. ,
(PID.TID 0000.0001) ># tracer 2 - nitrate
(PID.TID 0000.0001) > PTRACERS_names(2)='NO3',
(PID.TID 0000.0001) > PTRACERS_units(2)='mmol N/m^3',
(PID.TID 0000.0001) > PTRACERS_advScheme(2)=33,
(PID.TID 0000.0001) > PTRACERS_diffKh(2)=0.E3,
(PID.TID 0000.0001) > PTRACERS_diffKr(2)=1.E-6,
(PID.TID 0000.0001) > PTRACERS_useKPP(2)=.TRUE. ,
(PID.TID 0000.0001) ># tracer 3 - dissolved iron
(PID.TID 0000.0001) > PTRACERS_names(3)='FeT',
(PID.TID 0000.0001) > PTRACERS_units(3)='mmol Fe/m^3',
(PID.TID 0000.0001) > PTRACERS_advScheme(3)=33,
(PID.TID 0000.0001) > PTRACERS_diffKh(3)=0.E3,
(PID.TID 0000.0001) > PTRACERS_diffKr(3)=1.E-6,
(PID.TID 0000.0001) > PTRACERS_useKPP(3)=.TRUE. ,
(PID.TID 0000.0001) ># tracer 4 - silicic acid
(PID.TID 0000.0001) > PTRACERS_names(4)='SiO2',
(PID.TID 0000.0001) > PTRACERS_units(4)='mmol Si/m^3',
(PID.TID 0000.0001) > PTRACERS_advScheme(4)=33,
(PID.TID 0000.0001) > PTRACERS_diffKh(4)=0.E3,
(PID.TID 0000.0001) > PTRACERS_diffKr(4)=1.E-6,
(PID.TID 0000.0001) > PTRACERS_useKPP(4)=.TRUE. ,
(PID.TID 0000.0001) ># tracer 5 - DOP
(PID.TID 0000.0001) > PTRACERS_names(5)='DOP',
(PID.TID 0000.0001) > PTRACERS_units(5)='mmol P/m^3',
(PID.TID 0000.0001) > PTRACERS_advScheme(5)=33,
(PID.TID 0000.0001) > PTRACERS_diffKh(5)=0.E3,
(PID.TID 0000.0001) > PTRACERS_diffKr(5)=1.E-6,
(PID.TID 0000.0001) > PTRACERS_useKPP(5)=.TRUE.  ,
(PID.TID 0000.0001) ># tracer 6 - DON
(PID.TID 0000.0001) > PTRACERS_names(6)='DON',
(PID.TID 0000.0001) > PTRACERS_units(6)='mmol N/m^3',
(PID.TID 0000.0001) > PTRACERS_advScheme(6)=33,
(PID.TID 0000.0001) > PTRACERS_diffKh(6)=0.E3,
(PID.TID 0000.0001) > PTRACERS_diffKr(6)=1.E-6,
(PID.TID 0000.0001) > PTRACERS_useKPP(6)=.TRUE.  ,
(PID.TID 0000.0001) ># tracer 7 - DOFe
(PID.TID 0000.0001) > PTRACERS_names(7)='DOFe',
(PID.TID 0000.0001) > PTRACERS_units(7)='mmol Fe/m^3',
(PID.TID 0000.0001) > PTRACERS_advScheme(7)=33,
(PID.TID 0000.0001) > PTRACERS_diffKh(7)=0.E3,
(PID.TID 0000.0001) > PTRACERS_diffKr(7)=1.E-6,
(PID.TID 0000.0001) > PTRACERS_useKPP(7)=.TRUE.  ,
(PID.TID 0000.0001) ># tracer 8 - ZOO1P
(PID.TID 0000.0001) > PTRACERS_names(8)='ZOO1P',
(PID.TID 0000.0001) > PTRACERS_units(8)='mmol P/m^3',
(PID.TID 0000.0001) > PTRACERS_advScheme(8)=33,
(PID.TID 0000.0001) > PTRACERS_diffKh(8)=0.E3,
(PID.TID 0000.0001) > PTRACERS_diffKr(8)=1.E-6,
(PID.TID 0000.0001) > PTRACERS_useKPP(8)=.TRUE.  ,
(PID.TID 0000.0001) ># tracer 9 - ZOO1N
(PID.TID 0000.0001) > PTRACERS_names(9)='ZOO1N',
(PID.TID 0000.0001) > PTRACERS_units(9)='mmol N/m^3'
(PID.TID 0000.0001) > PTRACERS_advScheme(9)=33,
(PID.TID 0000.0001) > PTRACERS_diffKh(9)=0.E3,
(PID.TID 0000.0001) > PTRACERS_diffKr(9)=1.E-6,
(PID.TID 0000.0001) > PTRACERS_useKPP(9)=.TRUE.  ,
(PID.TID 0000.0001) ># tracer 10 - ZOO1Fe
(PID.TID 0000.0001) > PTRACERS_names(10)='ZOO1Fe',
(PID.TID 0000.0001) > PTRACERS_units(10)='mmol Fe/m^3'
(PID.TID 0000.0001) > PTRACERS_advScheme(10)=33,
(PID.TID 0000.0001) > PTRACERS_diffKh(10)=0.E3,
(PID.TID 0000.0001) > PTRACERS_diffKr(10)=1.E-6,
(PID.TID 0000.0001) > PTRACERS_useKPP(10)=.TRUE.  ,
(PID.TID 0000.0001) ># tracer 11 - ZOO1Si
(PID.TID 0000.0001) > PTRACERS_names(11)='ZOO1Si',
(PID.TID 0000.0001) > PTRACERS_units(11)='mmol Si/m^3'
(PID.TID 0000.0001) > PTRACERS_advScheme(11)=33,
(PID.TID 0000.0001) > PTRACERS_diffKh(11)=0.E3,
(PID.TID 0000.0001) > PTRACERS_diffKr(11)=1.E-6,
(PID.TID 0000.0001) > PTRACERS_useKPP(11)=.TRUE.  ,
(PID.TID 0000.0001) ># tracer 12 - ZOO2P
(PID.TID 0000.0001) > PTRACERS_names(12)='ZOO2P',
(PID.TID 0000.0001) > PTRACERS_units(12)='mmol P/m^3',
(PID.TID 0000.0001) > PTRACERS_advScheme(12)=33,
(PID.TID 0000.0001) > PTRACERS_diffKh(12)=0.E3,
(PID.TID 0000.0001) > PTRACERS_diffKr(12)=1.E-6,
(PID.TID 0000.0001) > PTRACERS_useKPP(12)=.TRUE.  ,
(PID.TID 0000.0001) ># tracer 13 - ZOO2N
(PID.TID 0000.0001) > PTRACERS_names(13)='ZOO2N',
(PID.TID 0000.0001) > PTRACERS_units(13)='mmol N/m^3'
(PID.TID 0000.0001) > PTRACERS_advScheme(13)=33,
(PID.TID 0000.0001) > PTRACERS_diffKh(13)=0.E3,
(PID.TID 0000.0001) > PTRACERS_diffKr(13)=1.E-6,
(PID.TID 0000.0001) > PTRACERS_useKPP(13)=.TRUE.  ,
(PID.TID 0000.0001) ># tracer 14 - ZOO2Fe
(PID.TID 0000.0001) > PTRACERS_names(14)='ZOO2Fe',
(PID.TID 0000.0001) > PTRACERS_units(14)='mmol Fe/m^3'
(PID.TID 0000.0001) > PTRACERS_advScheme(14)=33,
(PID.TID 0000.0001) > PTRACERS_diffKh(14)=0.E3,
(PID.TID 0000.0001) > PTRACERS_diffKr(14)=1.E-6,
(PID.TID 0000.0001) > PTRACERS_useKPP(14)=.TRUE.  ,
(PID.TID 0000.0001) ># tracer 15 - ZOO2Si
(PID.TID 0000.0001) > PTRACERS_names(15)='ZOO2Si',
(PID.TID 0000.0001) > PTRACERS_units(15)='mmol Si/m^3'
(PID.TID 0000.0001) > PTRACERS_advScheme(15)=33,
(PID.TID 0000.0001) > PTRACERS_diffKh(15)=0.E3,
(PID.TID 0000.0001) > PTRACERS_diffKr(15)=1.E-6,
(PID.TID 0000.0001) > PTRACERS_useKPP(15)=.TRUE.  ,
(PID.TID 0000.0001) ># tracer 16 - POP
(PID.TID 0000.0001) > PTRACERS_names(16)='POP',
(PID.TID 0000.0001) > PTRACERS_units(16)='mmol P/m^3',
(PID.TID 0000.0001) > PTRACERS_advScheme(16)=33,
(PID.TID 0000.0001) > PTRACERS_diffKh(16)=0.E3,
(PID.TID 0000.0001) > PTRACERS_diffKr(16)=1.E-6,
(PID.TID 0000.0001) > PTRACERS_useKPP(16)=.TRUE.  ,
(PID.TID 0000.0001) ># tracer 17 - PON
(PID.TID 0000.0001) > PTRACERS_names(17)='PON',
(PID.TID 0000.0001) > PTRACERS_units(17)='mmol N/m^3',
(PID.TID 0000.0001) > PTRACERS_advScheme(17)=33,
(PID.TID 0000.0001) > PTRACERS_diffKh(17)=0.E3,
(PID.TID 0000.0001) > PTRACERS_diffKr(17)=1.E-6,
(PID.TID 0000.0001) > PTRACERS_useKPP(17)=.TRUE.  ,
(PID.TID 0000.0001) ># tracer 18 - POFe
(PID.TID 0000.0001) > PTRACERS_names(18)='POFe',
(PID.TID 0000.0001) > PTRACERS_units(18)='mmol Fe/m^3'
(PID.TID 0000.0001) > PTRACERS_advScheme(18)=33,
(PID.TID 0000.0001) > PTRACERS_diffKh(18)=0.E3,
(PID.TID 0000.0001) > PTRACERS_diffKr(18)=1.E-6,
(PID.TID 0000.0001) > PTRACERS_useKPP(18)=.TRUE.  ,
(PID.TID 0000.0001) ># tracer 19 - POSi
(PID.TID 0000.0001) > PTRACERS_names(19)='POSi',
(PID.TID 0000.0001) > PTRACERS_units(19)='mmol Si/m^3'
(PID.TID 0000.0001) > PTRACERS_advScheme(19)=33,
(PID.TID 0000.0001) > PTRACERS_diffKh(19)=0.E3,
(PID.TID 0000.0001) > PTRACERS_diffKr(19)=1.E-6,
(PID.TID 0000.0001) > PTRACERS_useKPP(19)=.TRUE.  ,
(PID.TID 0000.0001) ># tracer 20 - NH4
(PID.TID 0000.0001) > PTRACERS_names(20)='NH4',
(PID.TID 0000.0001) > PTRACERS_units(20)='mmol N/m^3'
(PID.TID 0000.0001) > PTRACERS_advScheme(20)=33,
(PID.TID 0000.0001) > PTRACERS_diffKh(20)=0.E3,
(PID.TID 0000.0001) > PTRACERS_diffKr(20)=1.E-6,
(PID.TID 0000.0001) > PTRACERS_useKPP(20)=.TRUE.  ,
(PID.TID 0000.0001) ># tracer 21 - NO2
(PID.TID 0000.0001) > PTRACERS_names(21)='NO2',
(PID.TID 0000.0001) > PTRACERS_units(21)='mmol N/m^3'
(PID.TID 0000.0001) > PTRACERS_advScheme(21)=33,
(PID.TID 0000.0001) > PTRACERS_diffKh(21)=0.E3,
(PID.TID 0000.0001) > PTRACERS_diffKr(21)=1.E-6,
(PID.TID 0000.0001) > PTRACERS_useKPP(21)=.TRUE.  ,
(PID.TID 0000.0001) ># tracer 22 - PHYT01
(PID.TID 0000.0001) > PTRACERS_names(22)='Phy01',
(PID.TID 0000.0001) > PTRACERS_units(22)='mmol P/m^3'
(PID.TID 0000.0001) > PTRACERS_advScheme(22)=33,
(PID.TID 0000.0001) > PTRACERS_diffKh(22)=0.E3,
(PID.TID 0000.0001) > PTRACERS_diffKr(22)=1.E-6,
(PID.TID 0000.0001) > PTRACERS_useKPP(22)=.TRUE.  ,
(PID.TID 0000.0001) ># tracer 23 - PHYT02
(PID.TID 0000.0001) > PTRACERS_names(23)='Phy02',
(PID.TID 0000.0001) > PTRACERS_units(23)='mmol P/m^3'
(PID.TID 0000.0001) > PTRACERS_advScheme(23)=33,
(PID.TID 0000.0001) > PTRACERS_diffKh(23)=0.E3,
(PID.TID 0000.0001) > PTRACERS_diffKr(23)=1.E-6,
(PID.TID 0000.0001) > PTRACERS_useKPP(23)=.TRUE.  ,
(PID.TID 0000.0001) ># tracer 24 - PHYT03
(PID.TID 0000.0001) > PTRACERS_names(24)='Phy03',
(PID.TID 0000.0001) > PTRACERS_units(24)='mmol P/m^3'
(PID.TID 0000.0001) > PTRACERS_advScheme(24)=33,
(PID.TID 0000.0001) > PTRACERS_diffKh(24)=0.E3,
(PID.TID 0000.0001) > PTRACERS_diffKr(24)=1.E-6,
(PID.TID 0000.0001) > PTRACERS_useKPP(24)=.TRUE.  ,
(PID.TID 0000.0001) ># tracer 25 - PHYT04
(PID.TID 0000.0001) > PTRACERS_names(25)='Phy04',
(PID.TID 0000.0001) > PTRACERS_units(25)='mmol P/m^3'
(PID.TID 0000.0001) > PTRACERS_advScheme(25)=33,
(PID.TID 0000.0001) > PTRACERS_diffKh(25)=0.E3,
(PID.TID 0000.0001) > PTRACERS_diffKr(25)=1.E-6,
(PID.TID 0000.0001) > PTRACERS_useKPP(25)=.TRUE.  ,
(PID.TID 0000.0001) ># tracer 26 - PHYT05
(PID.TID 0000.0001) > PTRACERS_names(26)='Phy05',
(PID.TID 0000.0001) > PTRACERS_units(26)='mmol P/m^3'
(PID.TID 0000.0001) > PTRACERS_advScheme(26)=33,
(PID.TID 0000.0001) > PTRACERS_diffKh(26)=0.E3,
(PID.TID 0000.0001) > PTRACERS_diffKr(26)=1.E-6,
(PID.TID 0000.0001) > PTRACERS_useKPP(26)=.TRUE.  ,
(PID.TID 0000.0001) ># tracer 27 - PHYT06
(PID.TID 0000.0001) > PTRACERS_names(27)='Phy06',
(PID.TID 0000.0001) > PTRACERS_units(27)='mmol P/m^3'
(PID.TID 0000.0001) > PTRACERS_advScheme(27)=33,
(PID.TID 0000.0001) > PTRACERS_diffKh(27)=0.E3,
(PID.TID 0000.0001) > PTRACERS_diffKr(27)=1.E-6,
(PID.TID 0000.0001) > PTRACERS_useKPP(27)=.TRUE.  ,
(PID.TID 0000.0001) ># tracer 28 - PHYT07
(PID.TID 0000.0001) > PTRACERS_names(28)='Phy07',
(PID.TID 0000.0001) > PTRACERS_units(28)='mmol P/m^3'
(PID.TID 0000.0001) > PTRACERS_advScheme(28)=33,
(PID.TID 0000.0001) > PTRACERS_diffKh(28)=0.E3,
(PID.TID 0000.0001) > PTRACERS_diffKr(28)=1.E-6,
(PID.TID 0000.0001) > PTRACERS_useKPP(28)=.TRUE.  ,
(PID.TID 0000.0001) ># tracer 29 - PHYT08
(PID.TID 0000.0001) > PTRACERS_names(29)='Phy08',
(PID.TID 0000.0001) > PTRACERS_units(29)='mmol P/m^3'
(PID.TID 0000.0001) > PTRACERS_advScheme(29)=33,
(PID.TID 0000.0001) > PTRACERS_diffKh(29)=0.E3,
(PID.TID 0000.0001) > PTRACERS_diffKr(29)=1.E-6,
(PID.TID 0000.0001) > PTRACERS_useKPP(29)=.TRUE.  ,
(PID.TID 0000.0001) ># tracer 30 - PHYT09
(PID.TID 0000.0001) > PTRACERS_names(30)='Phy09',
(PID.TID 0000.0001) > PTRACERS_units(30)='mmol P/m^3'
(PID.TID 0000.0001) > PTRACERS_advScheme(30)=33,
(PID.TID 0000.0001) > PTRACERS_diffKh(30)=0.E3,
(PID.TID 0000.0001) > PTRACERS_diffKr(30)=1.E-6,
(PID.TID 0000.0001) > PTRACERS_useKPP(30)=.TRUE.  ,
(PID.TID 0000.0001) ># tracer 31 - PHYT10
(PID.TID 0000.0001) > PTRACERS_names(31)='Phy10',
(PID.TID 0000.0001) > PTRACERS_units(31)='mmol P/m^3'
(PID.TID 0000.0001) > PTRACERS_advScheme(31)=33,
(PID.TID 0000.0001) > PTRACERS_diffKh(31)=0.E3,
(PID.TID 0000.0001) > PTRACERS_diffKr(31)=1.E-6,
(PID.TID 0000.0001) > PTRACERS_useKPP(31)=.TRUE.  ,
(PID.TID 0000.0001) ># tracer 32 - PHYT11
(PID.TID 0000.0001) > PTRACERS_names(32)='Phy11',
(PID.TID 0000.0001) > PTRACERS_units(32)='mmol P/m^3'
(PID.TID 0000.0001) > PTRACERS_advScheme(32)=33,
(PID.TID 0000.0001) > PTRACERS_diffKh(32)=0.E3,
(PID.TID 0000.0001) > PTRACERS_diffKr(32)=1.E-6,
(PID.TID 0000.0001) > PTRACERS_useKPP(32)=.TRUE.  ,
(PID.TID 0000.0001) ># tracer 33 - PHYT12
(PID.TID 0000.0001) > PTRACERS_names(33)='Phy12',
(PID.TID 0000.0001) > PTRACERS_units(33)='mmol P/m^3'
(PID.TID 0000.0001) > PTRACERS_advScheme(33)=33,
(PID.TID 0000.0001) > PTRACERS_diffKh(33)=0.E3,
(PID.TID 0000.0001) > PTRACERS_diffKr(33)=1.E-6,
(PID.TID 0000.0001) > PTRACERS_useKPP(33)=.TRUE.  ,
(PID.TID 0000.0001) ># tracer 34 - PHYT13
(PID.TID 0000.0001) > PTRACERS_names(34)='Phy13',
(PID.TID 0000.0001) > PTRACERS_units(34)='mmol P/m^3'
(PID.TID 0000.0001) > PTRACERS_advScheme(34)=33,
(PID.TID 0000.0001) > PTRACERS_diffKh(34)=0.E3,
(PID.TID 0000.0001) > PTRACERS_diffKr(34)=1.E-6,
(PID.TID 0000.0001) > PTRACERS_useKPP(34)=.TRUE.  ,
(PID.TID 0000.0001) ># tracer 35 - PHYT14
(PID.TID 0000.0001) > PTRACERS_names(35)='Phy14',
(PID.TID 0000.0001) > PTRACERS_units(35)='mmol P/m^3'
(PID.TID 0000.0001) > PTRACERS_advScheme(35)=33,
(PID.TID 0000.0001) > PTRACERS_diffKh(35)=0.E3,
(PID.TID 0000.0001) > PTRACERS_diffKr(35)=1.E-6,
(PID.TID 0000.0001) > PTRACERS_useKPP(35)=.TRUE.  ,
(PID.TID 0000.0001) ># tracer 36 - PHYT15
(PID.TID 0000.0001) > PTRACERS_names(36)='Phy15',
(PID.TID 0000.0001) > PTRACERS_units(36)='mmol P/m^3'
(PID.TID 0000.0001) > PTRACERS_advScheme(36)=33,
(PID.TID 0000.0001) > PTRACERS_diffKh(36)=0.E3,
(PID.TID 0000.0001) > PTRACERS_diffKr(36)=1.E-6,
(PID.TID 0000.0001) > PTRACERS_useKPP(36)=.TRUE.  ,
(PID.TID 0000.0001) ># tracer 37 - PHYT16
(PID.TID 0000.0001) > PTRACERS_names(37)='Phy16',
(PID.TID 0000.0001) > PTRACERS_units(37)='mmol P/m^3'
(PID.TID 0000.0001) > PTRACERS_advScheme(37)=33,
(PID.TID 0000.0001) > PTRACERS_diffKh(37)=0.E3,
(PID.TID 0000.0001) > PTRACERS_diffKr(37)=1.E-6,
(PID.TID 0000.0001) > PTRACERS_useKPP(37)=.TRUE.  ,
(PID.TID 0000.0001) ># tracer 38 - PHYT17
(PID.TID 0000.0001) > PTRACERS_names(38)='Phy17',
(PID.TID 0000.0001) > PTRACERS_units(38)='mmol P/m^3'
(PID.TID 0000.0001) > PTRACERS_advScheme(38)=33,
(PID.TID 0000.0001) > PTRACERS_diffKh(38)=0.E3,
(PID.TID 0000.0001) > PTRACERS_diffKr(38)=1.E-6,
(PID.TID 0000.0001) > PTRACERS_useKPP(38)=.TRUE.  ,
(PID.TID 0000.0001) ># tracer 39 - PHYT18
(PID.TID 0000.0001) > PTRACERS_names(39)='Phy18',
(PID.TID 0000.0001) > PTRACERS_units(39)='mmol P/m^3'
(PID.TID 0000.0001) > PTRACERS_advScheme(39)=33,
(PID.TID 0000.0001) > PTRACERS_diffKh(39)=0.E3,
(PID.TID 0000.0001) > PTRACERS_diffKr(39)=1.E-6,
(PID.TID 0000.0001) > PTRACERS_useKPP(39)=.TRUE.  ,
(PID.TID 0000.0001) ># tracer 40 - PHYT19
(PID.TID 0000.0001) > PTRACERS_names(40)='Phy19',
(PID.TID 0000.0001) > PTRACERS_units(40)='mmol P/m^3'
(PID.TID 0000.0001) > PTRACERS_advScheme(40)=33,
(PID.TID 0000.0001) > PTRACERS_diffKh(40)=0.E3,
(PID.TID 0000.0001) > PTRACERS_diffKr(40)=1.E-6,
(PID.TID 0000.0001) > PTRACERS_useKPP(40)=.TRUE.  ,
(PID.TID 0000.0001) ># tracer 41 - PHYT20
(PID.TID 0000.0001) > PTRACERS_names(41)='Phy20',
(PID.TID 0000.0001) > PTRACERS_units(41)='mmol P/m^3'
(PID.TID 0000.0001) > PTRACERS_advScheme(41)=33,
(PID.TID 0000.0001) > PTRACERS_diffKh(41)=0.E3,
(PID.TID 0000.0001) > PTRACERS_diffKr(41)=1.E-6,
(PID.TID 0000.0001) > PTRACERS_useKPP(41)=.TRUE.  ,
(PID.TID 0000.0001) ># tracer 42 - PHYT21
(PID.TID 0000.0001) > PTRACERS_names(42)='Phy21',
(PID.TID 0000.0001) > PTRACERS_units(42)='mmol P/m^3'
(PID.TID 0000.0001) > PTRACERS_advScheme(42)=33,
(PID.TID 0000.0001) > PTRACERS_diffKh(42)=0.E3,
(PID.TID 0000.0001) > PTRACERS_diffKr(42)=1.E-6,
(PID.TID 0000.0001) > PTRACERS_useKPP(42)=.TRUE.  ,
(PID.TID 0000.0001) ># tracer 43 - PHYT22
(PID.TID 0000.0001) > PTRACERS_names(43)='Phy22',
(PID.TID 0000.0001) > PTRACERS_units(43)='mmol P/m^3'
(PID.TID 0000.0001) > PTRACERS_advScheme(43)=33,
(PID.TID 0000.0001) > PTRACERS_diffKh(43)=0.E3,
(PID.TID 0000.0001) > PTRACERS_diffKr(43)=1.E-6,
(PID.TID 0000.0001) > PTRACERS_useKPP(43)=.TRUE.  ,
(PID.TID 0000.0001) ># tracer 44 - PHYT23
(PID.TID 0000.0001) > PTRACERS_names(44)='Phy23',
(PID.TID 0000.0001) > PTRACERS_units(44)='mmol P/m^3'
(PID.TID 0000.0001) > PTRACERS_advScheme(44)=33,
(PID.TID 0000.0001) > PTRACERS_diffKh(44)=0.E3,
(PID.TID 0000.0001) > PTRACERS_diffKr(44)=1.E-6,
(PID.TID 0000.0001) > PTRACERS_useKPP(44)=.TRUE.  ,
(PID.TID 0000.0001) ># tracer 45 - PHYT24
(PID.TID 0000.0001) > PTRACERS_names(45)='Phy24',
(PID.TID 0000.0001) > PTRACERS_units(45)='mmol P/m^3'
(PID.TID 0000.0001) > PTRACERS_advScheme(45)=33,
(PID.TID 0000.0001) > PTRACERS_diffKh(45)=0.E3,
(PID.TID 0000.0001) > PTRACERS_diffKr(45)=1.E-6,
(PID.TID 0000.0001) > PTRACERS_useKPP(45)=.TRUE.  ,
(PID.TID 0000.0001) ># tracer 46 - PHYT25
(PID.TID 0000.0001) > PTRACERS_names(46)='Phy25',
(PID.TID 0000.0001) > PTRACERS_units(46)='mmol P/m^3'
(PID.TID 0000.0001) > PTRACERS_advScheme(46)=33,
(PID.TID 0000.0001) > PTRACERS_diffKh(46)=0.E3,
(PID.TID 0000.0001) > PTRACERS_diffKr(46)=1.E-6,
(PID.TID 0000.0001) > PTRACERS_useKPP(46)=.TRUE.  ,
(PID.TID 0000.0001) ># tracer 47 - PHYT26
(PID.TID 0000.0001) > PTRACERS_names(47)='Phy26',
(PID.TID 0000.0001) > PTRACERS_units(47)='mmol P/m^3'
(PID.TID 0000.0001) > PTRACERS_advScheme(47)=33,
(PID.TID 0000.0001) > PTRACERS_diffKh(47)=0.E3,
(PID.TID 0000.0001) > PTRACERS_diffKr(47)=1.E-6,
(PID.TID 0000.0001) > PTRACERS_useKPP(47)=.TRUE.  ,
(PID.TID 0000.0001) ># tracer 48 - PHYT27
(PID.TID 0000.0001) > PTRACERS_names(48)='Phy27',
(PID.TID 0000.0001) > PTRACERS_units(48)='mmol P/m^3'
(PID.TID 0000.0001) > PTRACERS_advScheme(48)=33,
(PID.TID 0000.0001) > PTRACERS_diffKh(48)=0.E3,
(PID.TID 0000.0001) > PTRACERS_diffKr(48)=1.E-6,
(PID.TID 0000.0001) > PTRACERS_useKPP(48)=.TRUE.  ,
(PID.TID 0000.0001) ># tracer 49 - PHYT28
(PID.TID 0000.0001) > PTRACERS_names(49)='Phy28',
(PID.TID 0000.0001) > PTRACERS_units(49)='mmol P/m^3'
(PID.TID 0000.0001) > PTRACERS_advScheme(49)=33,
(PID.TID 0000.0001) > PTRACERS_diffKh(49)=0.E3,
(PID.TID 0000.0001) > PTRACERS_diffKr(49)=1.E-6,
(PID.TID 0000.0001) > PTRACERS_useKPP(49)=.TRUE.  ,
(PID.TID 0000.0001) ># tracer 50 - PHYT29
(PID.TID 0000.0001) > PTRACERS_names(50)='Phy29',
(PID.TID 0000.0001) > PTRACERS_units(50)='mmol P/m^3'
(PID.TID 0000.0001) > PTRACERS_advScheme(50)=33,
(PID.TID 0000.0001) > PTRACERS_diffKh(50)=0.E3,
(PID.TID 0000.0001) > PTRACERS_diffKr(50)=1.E-6,
(PID.TID 0000.0001) > PTRACERS_useKPP(50)=.TRUE.  ,
(PID.TID 0000.0001) ># tracer 51 - PHY30
(PID.TID 0000.0001) > PTRACERS_names(51)='Phy30',
(PID.TID 0000.0001) > PTRACERS_units(51)='mmol P/m^3'
(PID.TID 0000.0001) > PTRACERS_advScheme(51)=33,
(PID.TID 0000.0001) > PTRACERS_diffKh(51)=0.E3,
(PID.TID 0000.0001) > PTRACERS_diffKr(51)=1.E-6,
(PID.TID 0000.0001) > PTRACERS_useKPP(51)=.TRUE.  ,
(PID.TID 0000.0001) ># tracer 52 - PHY31
(PID.TID 0000.0001) > PTRACERS_names(52)='Phy31',
(PID.TID 0000.0001) > PTRACERS_units(52)='mmol P/m^3'
(PID.TID 0000.0001) > PTRACERS_advScheme(52)=33,
(PID.TID 0000.0001) > PTRACERS_diffKh(52)=0.E3,
(PID.TID 0000.0001) > PTRACERS_diffKr(52)=1.E-6,
(PID.TID 0000.0001) > PTRACERS_useKPP(52)=.TRUE.  ,
(PID.TID 0000.0001) ># tracer 53 - PHY32
(PID.TID 0000.0001) > PTRACERS_names(53)='Phy32',
(PID.TID 0000.0001) > PTRACERS_units(53)='mmol P/m^3'
(PID.TID 0000.0001) > PTRACERS_advScheme(53)=33,
(PID.TID 0000.0001) > PTRACERS_diffKh(53)=0.E3,
(PID.TID 0000.0001) > PTRACERS_diffKr(53)=1.E-6,
(PID.TID 0000.0001) > PTRACERS_useKPP(53)=.TRUE.  ,
(PID.TID 0000.0001) ># tracer 54 - PHY33
(PID.TID 0000.0001) > PTRACERS_names(54)='Phy33',
(PID.TID 0000.0001) > PTRACERS_units(54)='mmol P/m^3'
(PID.TID 0000.0001) > PTRACERS_advScheme(54)=33,
(PID.TID 0000.0001) > PTRACERS_diffKh(54)=0.E3,
(PID.TID 0000.0001) > PTRACERS_diffKr(54)=1.E-6,
(PID.TID 0000.0001) > PTRACERS_useKPP(54)=.TRUE.  ,
(PID.TID 0000.0001) ># tracer 55 - PHY34
(PID.TID 0000.0001) > PTRACERS_names(55)='Phy34',
(PID.TID 0000.0001) > PTRACERS_units(55)='mmol P/m^3'
(PID.TID 0000.0001) > PTRACERS_advScheme(55)=33,
(PID.TID 0000.0001) > PTRACERS_diffKh(55)=0.E3,
(PID.TID 0000.0001) > PTRACERS_diffKr(55)=1.E-6,
(PID.TID 0000.0001) > PTRACERS_useKPP(55)=.TRUE.  ,
(PID.TID 0000.0001) ># tracer 56 - PHY35
(PID.TID 0000.0001) > PTRACERS_names(56)='Phy35',
(PID.TID 0000.0001) > PTRACERS_units(56)='mmol P/m^3'
(PID.TID 0000.0001) > PTRACERS_advScheme(56)=33,
(PID.TID 0000.0001) > PTRACERS_diffKh(56)=0.E3,
(PID.TID 0000.0001) > PTRACERS_diffKr(56)=1.E-6,
(PID.TID 0000.0001) > PTRACERS_useKPP(56)=.TRUE.  ,
(PID.TID 0000.0001) ># tracer 57 - PHY36
(PID.TID 0000.0001) > PTRACERS_names(57)='Phy36',
(PID.TID 0000.0001) > PTRACERS_units(57)='mmol P/m^3'
(PID.TID 0000.0001) > PTRACERS_advScheme(57)=33,
(PID.TID 0000.0001) > PTRACERS_diffKh(57)=0.E3,
(PID.TID 0000.0001) > PTRACERS_diffKr(57)=1.E-6,
(PID.TID 0000.0001) > PTRACERS_useKPP(57)=.TRUE.  ,
(PID.TID 0000.0001) ># tracer 58 - PHY37
(PID.TID 0000.0001) > PTRACERS_names(58)='Phy37',
(PID.TID 0000.0001) > PTRACERS_units(58)='mmol P/m^3'
(PID.TID 0000.0001) > PTRACERS_advScheme(58)=33,
(PID.TID 0000.0001) > PTRACERS_diffKh(58)=0.E3,
(PID.TID 0000.0001) > PTRACERS_diffKr(58)=1.E-6,
(PID.TID 0000.0001) > PTRACERS_useKPP(58)=.TRUE.  ,
(PID.TID 0000.0001) ># tracer 59 - PHY38
(PID.TID 0000.0001) > PTRACERS_names(59)='Phy38',
(PID.TID 0000.0001) > PTRACERS_units(59)='mmol P/m^3'
(PID.TID 0000.0001) > PTRACERS_advScheme(59)=33,
(PID.TID 0000.0001) > PTRACERS_diffKh(59)=0.E3,
(PID.TID 0000.0001) > PTRACERS_diffKr(59)=1.E-6,
(PID.TID 0000.0001) > PTRACERS_useKPP(59)=.TRUE.  ,
(PID.TID 0000.0001) ># tracer 60 - PHY39
(PID.TID 0000.0001) > PTRACERS_names(60)='Phy39',
(PID.TID 0000.0001) > PTRACERS_units(60)='mmol P/m^3'
(PID.TID 0000.0001) > PTRACERS_advScheme(60)=33,
(PID.TID 0000.0001) > PTRACERS_diffKh(60)=0.E3,
(PID.TID 0000.0001) > PTRACERS_diffKr(60)=1.E-6,
(PID.TID 0000.0001) > PTRACERS_useKPP(60)=.TRUE.  ,
(PID.TID 0000.0001) ># tracer 61 - PHY40
(PID.TID 0000.0001) > PTRACERS_names(61)='Phy40',
(PID.TID 0000.0001) > PTRACERS_units(61)='mmol P/m^3'
(PID.TID 0000.0001) > PTRACERS_advScheme(61)=33,
(PID.TID 0000.0001) > PTRACERS_diffKh(61)=0.E3,
(PID.TID 0000.0001) > PTRACERS_diffKr(61)=1.E-6,
(PID.TID 0000.0001) > PTRACERS_useKPP(61)=.TRUE.  ,
(PID.TID 0000.0001) ># tracer 62 - PHY41
(PID.TID 0000.0001) > PTRACERS_names(62)='Phy41',
(PID.TID 0000.0001) > PTRACERS_units(62)='mmol P/m^3'
(PID.TID 0000.0001) > PTRACERS_advScheme(62)=33,
(PID.TID 0000.0001) > PTRACERS_diffKh(62)=0.E3,
(PID.TID 0000.0001) > PTRACERS_diffKr(62)=1.E-6,
(PID.TID 0000.0001) > PTRACERS_useKPP(62)=.TRUE.  ,
(PID.TID 0000.0001) ># tracer 63 - PHY42
(PID.TID 0000.0001) > PTRACERS_names(63)='Phy42',
(PID.TID 0000.0001) > PTRACERS_units(63)='mmol P/m^3'
(PID.TID 0000.0001) > PTRACERS_advScheme(63)=33,
(PID.TID 0000.0001) > PTRACERS_diffKh(63)=0.E3,
(PID.TID 0000.0001) > PTRACERS_diffKr(63)=1.E-6,
(PID.TID 0000.0001) > PTRACERS_useKPP(63)=.TRUE.  ,
(PID.TID 0000.0001) ># tracer 64 - PHY43
(PID.TID 0000.0001) > PTRACERS_names(64)='Phy43',
(PID.TID 0000.0001) > PTRACERS_units(64)='mmol P/m^3'
(PID.TID 0000.0001) > PTRACERS_advScheme(64)=33,
(PID.TID 0000.0001) > PTRACERS_diffKh(64)=0.E3,
(PID.TID 0000.0001) > PTRACERS_diffKr(64)=1.E-6,
(PID.TID 0000.0001) > PTRACERS_useKPP(64)=.TRUE.  ,
(PID.TID 0000.0001) ># tracer 65 - PHY44
(PID.TID 0000.0001) > PTRACERS_names(65)='Phy44',
(PID.TID 0000.0001) > PTRACERS_units(65)='mmol P/m^3'
(PID.TID 0000.0001) > PTRACERS_advScheme(65)=33,
(PID.TID 0000.0001) > PTRACERS_diffKh(65)=0.E3,
(PID.TID 0000.0001) > PTRACERS_diffKr(65)=1.E-6,
(PID.TID 0000.0001) > PTRACERS_useKPP(65)=.TRUE.  ,
(PID.TID 0000.0001) ># tracer 66 - PHY45
(PID.TID 0000.0001) > PTRACERS_names(66)='Phy45',
(PID.TID 0000.0001) > PTRACERS_units(66)='mmol P/m^3'
(PID.TID 0000.0001) > PTRACERS_advScheme(66)=33,
(PID.TID 0000.0001) > PTRACERS_diffKh(66)=0.E3,
(PID.TID 0000.0001) > PTRACERS_diffKr(66)=1.E-6,
(PID.TID 0000.0001) > PTRACERS_useKPP(66)=.TRUE.  ,
(PID.TID 0000.0001) ># tracer 67 - PHY46
(PID.TID 0000.0001) > PTRACERS_names(67)='Phy46',
(PID.TID 0000.0001) > PTRACERS_units(67)='mmol P/m^3'
(PID.TID 0000.0001) > PTRACERS_advScheme(67)=33,
(PID.TID 0000.0001) > PTRACERS_diffKh(67)=0.E3,
(PID.TID 0000.0001) > PTRACERS_diffKr(67)=1.E-6,
(PID.TID 0000.0001) > PTRACERS_useKPP(67)=.TRUE.  ,
(PID.TID 0000.0001) ># tracer 68 - PHY47
(PID.TID 0000.0001) > PTRACERS_names(68)='Phy47',
(PID.TID 0000.0001) > PTRACERS_units(68)='mmol P/m^3'
(PID.TID 0000.0001) > PTRACERS_advScheme(68)=33,
(PID.TID 0000.0001) > PTRACERS_diffKh(68)=0.E3,
(PID.TID 0000.0001) > PTRACERS_diffKr(68)=1.E-6,
(PID.TID 0000.0001) > PTRACERS_useKPP(68)=.TRUE.  ,
(PID.TID 0000.0001) ># tracer 69 - PHY48
(PID.TID 0000.0001) > PTRACERS_names(69)='Phy48',
(PID.TID 0000.0001) > PTRACERS_units(69)='mmol P/m^3'
(PID.TID 0000.0001) > PTRACERS_advScheme(69)=33,
(PID.TID 0000.0001) > PTRACERS_diffKh(69)=0.E3,
(PID.TID 0000.0001) > PTRACERS_diffKr(69)=1.E-6,
(PID.TID 0000.0001) > PTRACERS_useKPP(69)=.TRUE.  ,
(PID.TID 0000.0001) ># tracer 70 - PHY49
(PID.TID 0000.0001) > PTRACERS_names(70)='Phy49',
(PID.TID 0000.0001) > PTRACERS_units(70)='mmol P/m^3'
(PID.TID 0000.0001) > PTRACERS_advScheme(70)=33,
(PID.TID 0000.0001) > PTRACERS_diffKh(70)=0.E3,
(PID.TID 0000.0001) > PTRACERS_diffKr(70)=1.E-6,
(PID.TID 0000.0001) > PTRACERS_useKPP(70)=.TRUE.  ,
(PID.TID 0000.0001) ># tracer 71 - PHY50
(PID.TID 0000.0001) > PTRACERS_names(71)='Phy50',
(PID.TID 0000.0001) > PTRACERS_units(71)='mmol P/m^3'
(PID.TID 0000.0001) > PTRACERS_advScheme(71)=33,
(PID.TID 0000.0001) > PTRACERS_diffKh(71)=0.E3,
(PID.TID 0000.0001) > PTRACERS_diffKr(71)=1.E-6,
(PID.TID 0000.0001) > PTRACERS_useKPP(71)=.TRUE.  ,
(PID.TID 0000.0001) ># tracer 72 - PHY51
(PID.TID 0000.0001) > PTRACERS_names(72)='Phy51',
(PID.TID 0000.0001) > PTRACERS_units(72)='mmol P/m^3'
(PID.TID 0000.0001) > PTRACERS_advScheme(72)=33,
(PID.TID 0000.0001) > PTRACERS_diffKh(72)=0.E3,
(PID.TID 0000.0001) > PTRACERS_diffKr(72)=1.E-6,
(PID.TID 0000.0001) > PTRACERS_useKPP(72)=.TRUE.  ,
(PID.TID 0000.0001) ># tracer 73 - PHY52
(PID.TID 0000.0001) > PTRACERS_names(73)='Phy52',
(PID.TID 0000.0001) > PTRACERS_units(73)='mmol P/m^3'
(PID.TID 0000.0001) > PTRACERS_advScheme(73)=33,
(PID.TID 0000.0001) > PTRACERS_diffKh(73)=0.E3,
(PID.TID 0000.0001) > PTRACERS_diffKr(73)=1.E-6,
(PID.TID 0000.0001) > PTRACERS_useKPP(73)=.TRUE.  ,
(PID.TID 0000.0001) ># tracer 74 - PHY53
(PID.TID 0000.0001) > PTRACERS_names(74)='Phy53',
(PID.TID 0000.0001) > PTRACERS_units(74)='mmol P/m^3'
(PID.TID 0000.0001) > PTRACERS_advScheme(74)=33,
(PID.TID 0000.0001) > PTRACERS_diffKh(74)=0.E3,
(PID.TID 0000.0001) > PTRACERS_diffKr(74)=1.E-6,
(PID.TID 0000.0001) > PTRACERS_useKPP(74)=.TRUE.  ,
(PID.TID 0000.0001) ># tracer 75 - PHY54
(PID.TID 0000.0001) > PTRACERS_names(75)='Phy54',
(PID.TID 0000.0001) > PTRACERS_units(75)='mmol P/m^3'
(PID.TID 0000.0001) > PTRACERS_advScheme(75)=33,
(PID.TID 0000.0001) > PTRACERS_diffKh(75)=0.E3,
(PID.TID 0000.0001) > PTRACERS_diffKr(75)=1.E-6,
(PID.TID 0000.0001) > PTRACERS_useKPP(75)=.TRUE.  ,
(PID.TID 0000.0001) ># tracer 76 - PHY55
(PID.TID 0000.0001) > PTRACERS_names(76)='Phy55',
(PID.TID 0000.0001) > PTRACERS_units(76)='mmol P/m^3'
(PID.TID 0000.0001) > PTRACERS_advScheme(76)=33,
(PID.TID 0000.0001) > PTRACERS_diffKh(76)=0.E3,
(PID.TID 0000.0001) > PTRACERS_diffKr(76)=1.E-6,
(PID.TID 0000.0001) > PTRACERS_useKPP(76)=.TRUE.  ,
(PID.TID 0000.0001) ># tracer 77 - PHY56
(PID.TID 0000.0001) > PTRACERS_names(77)='Phy56',
(PID.TID 0000.0001) > PTRACERS_units(77)='mmol P/m^3'
(PID.TID 0000.0001) > PTRACERS_advScheme(77)=33,
(PID.TID 0000.0001) > PTRACERS_diffKh(77)=0.E3,
(PID.TID 0000.0001) > PTRACERS_diffKr(77)=1.E-6,
(PID.TID 0000.0001) > PTRACERS_useKPP(77)=.TRUE.  ,
(PID.TID 0000.0001) ># tracer 78 - PHY57
(PID.TID 0000.0001) > PTRACERS_names(78)='Phy57',
(PID.TID 0000.0001) > PTRACERS_units(78)='mmol P/m^3'
(PID.TID 0000.0001) > PTRACERS_advScheme(78)=33,
(PID.TID 0000.0001) > PTRACERS_diffKh(78)=0.E3,
(PID.TID 0000.0001) > PTRACERS_diffKr(78)=1.E-6,
(PID.TID 0000.0001) > PTRACERS_useKPP(78)=.TRUE.  ,
(PID.TID 0000.0001) ># tracer 79 - PHY58
(PID.TID 0000.0001) > PTRACERS_names(79)='Phy58',
(PID.TID 0000.0001) > PTRACERS_units(79)='mmol P/m^3'
(PID.TID 0000.0001) > PTRACERS_advScheme(79)=33,
(PID.TID 0000.0001) > PTRACERS_diffKh(79)=0.E3,
(PID.TID 0000.0001) > PTRACERS_diffKr(79)=1.E-6,
(PID.TID 0000.0001) > PTRACERS_useKPP(79)=.TRUE.  ,
(PID.TID 0000.0001) ># tracer 80 - PHY59
(PID.TID 0000.0001) > PTRACERS_names(80)='Phy59',
(PID.TID 0000.0001) > PTRACERS_units(80)='mmol P/m^3'
(PID.TID 0000.0001) > PTRACERS_advScheme(80)=33,
(PID.TID 0000.0001) > PTRACERS_diffKh(80)=0.E3,
(PID.TID 0000.0001) > PTRACERS_diffKr(80)=1.E-6,
(PID.TID 0000.0001) > PTRACERS_useKPP(80)=.TRUE.  ,
(PID.TID 0000.0001) ># tracer 81 - PHY60
(PID.TID 0000.0001) > PTRACERS_names(81)='Phy60',
(PID.TID 0000.0001) > PTRACERS_units(81)='mmol P/m^3'
(PID.TID 0000.0001) > PTRACERS_advScheme(81)=33,
(PID.TID 0000.0001) > PTRACERS_diffKh(81)=0.E3,
(PID.TID 0000.0001) > PTRACERS_diffKr(81)=1.E-6,
(PID.TID 0000.0001) > PTRACERS_useKPP(81)=.TRUE.  ,
(PID.TID 0000.0001) ># tracer 82 - PHY61
(PID.TID 0000.0001) > PTRACERS_names(82)='Phy61',
(PID.TID 0000.0001) > PTRACERS_units(82)='mmol P/m^3'
(PID.TID 0000.0001) > PTRACERS_advScheme(82)=33,
(PID.TID 0000.0001) > PTRACERS_diffKh(82)=0.E3,
(PID.TID 0000.0001) > PTRACERS_diffKr(82)=1.E-6,
(PID.TID 0000.0001) > PTRACERS_useKPP(82)=.TRUE.  ,
(PID.TID 0000.0001) ># tracer 83 - PHY62
(PID.TID 0000.0001) > PTRACERS_names(83)='Phy62',
(PID.TID 0000.0001) > PTRACERS_units(83)='mmol P/m^3'
(PID.TID 0000.0001) > PTRACERS_advScheme(83)=33,
(PID.TID 0000.0001) > PTRACERS_diffKh(83)=0.E3,
(PID.TID 0000.0001) > PTRACERS_diffKr(83)=1.E-6,
(PID.TID 0000.0001) > PTRACERS_useKPP(83)=.TRUE.  ,
(PID.TID 0000.0001) ># tracer 84 - PHY63
(PID.TID 0000.0001) > PTRACERS_names(84)='Phy63',
(PID.TID 0000.0001) > PTRACERS_units(84)='mmol P/m^3'
(PID.TID 0000.0001) > PTRACERS_advScheme(84)=33,
(PID.TID 0000.0001) > PTRACERS_diffKh(84)=0.E3,
(PID.TID 0000.0001) > PTRACERS_diffKr(84)=1.E-6,
(PID.TID 0000.0001) > PTRACERS_useKPP(84)=.TRUE.  ,
(PID.TID 0000.0001) ># tracer 85 - PHY64
(PID.TID 0000.0001) > PTRACERS_names(85)='Phy64',
(PID.TID 0000.0001) > PTRACERS_units(85)='mmol P/m^3'
(PID.TID 0000.0001) > PTRACERS_advScheme(85)=33,
(PID.TID 0000.0001) > PTRACERS_diffKh(85)=0.E3,
(PID.TID 0000.0001) > PTRACERS_diffKr(85)=1.E-6,
(PID.TID 0000.0001) > PTRACERS_useKPP(85)=.TRUE.  ,
(PID.TID 0000.0001) ># tracer 86 - PHY65
(PID.TID 0000.0001) > PTRACERS_names(86)='Phy65',
(PID.TID 0000.0001) > PTRACERS_units(86)='mmol P/m^3'
(PID.TID 0000.0001) > PTRACERS_advScheme(86)=33,
(PID.TID 0000.0001) > PTRACERS_diffKh(86)=0.E3,
(PID.TID 0000.0001) > PTRACERS_diffKr(86)=1.E-6,
(PID.TID 0000.0001) > PTRACERS_useKPP(86)=.TRUE.  ,
(PID.TID 0000.0001) ># tracer 87 - PHY66
(PID.TID 0000.0001) > PTRACERS_names(87)='Phy66',
(PID.TID 0000.0001) > PTRACERS_units(87)='mmol P/m^3'
(PID.TID 0000.0001) > PTRACERS_advScheme(87)=33,
(PID.TID 0000.0001) > PTRACERS_diffKh(87)=0.E3,
(PID.TID 0000.0001) > PTRACERS_diffKr(87)=1.E-6,
(PID.TID 0000.0001) > PTRACERS_useKPP(87)=.TRUE.  ,
(PID.TID 0000.0001) ># tracer 88 - PHY67
(PID.TID 0000.0001) > PTRACERS_names(88)='Phy67',
(PID.TID 0000.0001) > PTRACERS_units(88)='mmol P/m^3'
(PID.TID 0000.0001) > PTRACERS_advScheme(88)=33,
(PID.TID 0000.0001) > PTRACERS_diffKh(88)=0.E3,
(PID.TID 0000.0001) > PTRACERS_diffKr(88)=1.E-6,
(PID.TID 0000.0001) > PTRACERS_useKPP(88)=.TRUE.  ,
(PID.TID 0000.0001) ># tracer 89 - PHY68
(PID.TID 0000.0001) > PTRACERS_names(89)='Phy68',
(PID.TID 0000.0001) > PTRACERS_units(89)='mmol P/m^3'
(PID.TID 0000.0001) > PTRACERS_advScheme(89)=33,
(PID.TID 0000.0001) > PTRACERS_diffKh(89)=0.E3,
(PID.TID 0000.0001) > PTRACERS_diffKr(89)=1.E-6,
(PID.TID 0000.0001) > PTRACERS_useKPP(89)=.TRUE.  ,
(PID.TID 0000.0001) ># tracer 90 - PHY69
(PID.TID 0000.0001) > PTRACERS_names(90)='Phy69',
(PID.TID 0000.0001) > PTRACERS_units(90)='mmol P/m^3'
(PID.TID 0000.0001) > PTRACERS_advScheme(90)=33,
(PID.TID 0000.0001) > PTRACERS_diffKh(90)=0.E3,
(PID.TID 0000.0001) > PTRACERS_diffKr(90)=1.E-6,
(PID.TID 0000.0001) > PTRACERS_useKPP(90)=.TRUE.  ,
(PID.TID 0000.0001) ># tracer 91 - PHY70
(PID.TID 0000.0001) > PTRACERS_names(91)='Phy70',
(PID.TID 0000.0001) > PTRACERS_units(91)='mmol P/m^3'
(PID.TID 0000.0001) > PTRACERS_advScheme(91)=33,
(PID.TID 0000.0001) > PTRACERS_diffKh(91)=0.E3,
(PID.TID 0000.0001) > PTRACERS_diffKr(91)=1.E-6,
(PID.TID 0000.0001) > PTRACERS_useKPP(91)=.TRUE.  ,
(PID.TID 0000.0001) ># tracer 92 - PHY71
(PID.TID 0000.0001) > PTRACERS_names(92)='Phy71',
(PID.TID 0000.0001) > PTRACERS_units(92)='mmol P/m^3'
(PID.TID 0000.0001) > PTRACERS_advScheme(92)=33,
(PID.TID 0000.0001) > PTRACERS_diffKh(92)=0.E3,
(PID.TID 0000.0001) > PTRACERS_diffKr(92)=1.E-6,
(PID.TID 0000.0001) > PTRACERS_useKPP(92)=.TRUE.  ,
(PID.TID 0000.0001) ># tracer 93 - PHY72
(PID.TID 0000.0001) > PTRACERS_names(93)='Phy72',
(PID.TID 0000.0001) > PTRACERS_units(93)='mmol P/m^3'
(PID.TID 0000.0001) > PTRACERS_advScheme(93)=33,
(PID.TID 0000.0001) > PTRACERS_diffKh(93)=0.E3,
(PID.TID 0000.0001) > PTRACERS_diffKr(93)=1.E-6,
(PID.TID 0000.0001) > PTRACERS_useKPP(93)=.TRUE.  ,
(PID.TID 0000.0001) ># tracer 94 - PHY73
(PID.TID 0000.0001) > PTRACERS_names(94)='Phy73',
(PID.TID 0000.0001) > PTRACERS_units(94)='mmol P/m^3'
(PID.TID 0000.0001) > PTRACERS_advScheme(94)=33,
(PID.TID 0000.0001) > PTRACERS_diffKh(94)=0.E3,
(PID.TID 0000.0001) > PTRACERS_diffKr(94)=1.E-6,
(PID.TID 0000.0001) > PTRACERS_useKPP(94)=.TRUE.  ,
(PID.TID 0000.0001) ># tracer 95 - PHY74
(PID.TID 0000.0001) > PTRACERS_names(95)='Phy74',
(PID.TID 0000.0001) > PTRACERS_units(95)='mmol P/m^3'
(PID.TID 0000.0001) > PTRACERS_advScheme(95)=33,
(PID.TID 0000.0001) > PTRACERS_diffKh(95)=0.E3,
(PID.TID 0000.0001) > PTRACERS_diffKr(95)=1.E-6,
(PID.TID 0000.0001) > PTRACERS_useKPP(95)=.TRUE.  ,
(PID.TID 0000.0001) ># tracer 96 - PHY75
(PID.TID 0000.0001) > PTRACERS_names(96)='Phy75',
(PID.TID 0000.0001) > PTRACERS_units(96)='mmol P/m^3'
(PID.TID 0000.0001) > PTRACERS_advScheme(96)=33,
(PID.TID 0000.0001) > PTRACERS_diffKh(96)=0.E3,
(PID.TID 0000.0001) > PTRACERS_diffKr(96)=1.E-6,
(PID.TID 0000.0001) > PTRACERS_useKPP(96)=.TRUE.  ,
(PID.TID 0000.0001) ># tracer 97 - PHY76
(PID.TID 0000.0001) > PTRACERS_names(97)='Phy76',
(PID.TID 0000.0001) > PTRACERS_units(97)='mmol P/m^3'
(PID.TID 0000.0001) > PTRACERS_advScheme(97)=33,
(PID.TID 0000.0001) > PTRACERS_diffKh(97)=0.E3,
(PID.TID 0000.0001) > PTRACERS_diffKr(97)=1.E-6,
(PID.TID 0000.0001) > PTRACERS_useKPP(97)=.TRUE.  ,
(PID.TID 0000.0001) ># tracer 98 - PHY77
(PID.TID 0000.0001) > PTRACERS_names(98)='Phy77',
(PID.TID 0000.0001) > PTRACERS_units(98)='mmol P/m^3'
(PID.TID 0000.0001) > PTRACERS_advScheme(98)=33,
(PID.TID 0000.0001) > PTRACERS_diffKh(98)=0.E3,
(PID.TID 0000.0001) > PTRACERS_diffKr(98)=1.E-6,
(PID.TID 0000.0001) > PTRACERS_useKPP(98)=.TRUE.  ,
(PID.TID 0000.0001) ># tracer 99 - PHY78
(PID.TID 0000.0001) > PTRACERS_names(99)='Phy78',
(PID.TID 0000.0001) > PTRACERS_units(99)='mmol P/m^3'
(PID.TID 0000.0001) > PTRACERS_advScheme(99)=33,
(PID.TID 0000.0001) > PTRACERS_diffKh(99)=0.E3,
(PID.TID 0000.0001) > PTRACERS_diffKr(99)=1.E-6,
(PID.TID 0000.0001) > PTRACERS_useKPP(99)=.TRUE.  ,
(PID.TID 0000.0001) > /
(PID.TID 0000.0001) 
(PID.TID 0000.0001)  PTRACERS_READPARMS: finished reading data.ptracers
(PID.TID 0000.0001) // ===================================
(PID.TID 0000.0001) // PTRACERS parameters
(PID.TID 0000.0001) // ===================================
(PID.TID 0000.0001) PTRACERS_numInUse = /* number of tracers */
(PID.TID 0000.0001)                      99
(PID.TID 0000.0001)     ;
(PID.TID 0000.0001) PTRACERS_Iter0 = /* timestep number when tracers are initialized */
(PID.TID 0000.0001)                   26352
(PID.TID 0000.0001)     ;
(PID.TID 0000.0001) PTRACERS_dumpFreq = /* Frequency^-1 for snapshot output (s) */
(PID.TID 0000.0001)                 0.000000000000000E+00
(PID.TID 0000.0001)     ;
(PID.TID 0000.0001) PTRACERS_taveFreq = /* Frequency^-1 for time-Aver. output (s) */
(PID.TID 0000.0001)                 0.000000000000000E+00
(PID.TID 0000.0001)     ;
(PID.TID 0000.0001) PTRACERS_useRecords = /* all tracers in 1 file */
(PID.TID 0000.0001)                   F
(PID.TID 0000.0001)     ;
(PID.TID 0000.0001) PTRACERS_timeave_mnc = /* use MNC for Tave output */
(PID.TID 0000.0001)                   F
(PID.TID 0000.0001)     ;
(PID.TID 0000.0001) PTRACERS_snapshot_mnc = /* use MNC for snapshot output */
(PID.TID 0000.0001)                   F
(PID.TID 0000.0001)     ;
(PID.TID 0000.0001) PTRACERS_pickup_write_mnc = /* use MNC for writing pickups */
(PID.TID 0000.0001)                   F
(PID.TID 0000.0001)     ;
(PID.TID 0000.0001) PTRACERS_pickup_read_mnc = /* use MNC for reading pickups */
(PID.TID 0000.0001)                   F
(PID.TID 0000.0001)     ;
(PID.TID 0000.0001)  -----------------------------------
(PID.TID 0000.0001)  tracer number :    1
(PID.TID 0000.0001) PTRACERS_ioLabel = /* tracer IO Label */
(PID.TID 0000.0001)               '01'
(PID.TID 0000.0001)     ;
(PID.TID 0000.0001) PTRACERS_advScheme = /* Advection Scheme */
(PID.TID 0000.0001)                      33
(PID.TID 0000.0001)     ;
(PID.TID 0000.0001) PTRACERS_ImplVertAdv = /* implicit vert. advection flag */
(PID.TID 0000.0001)                   F
(PID.TID 0000.0001)     ;
(PID.TID 0000.0001) PTRACERS_diffKh = /* Laplacian Diffusivity */
(PID.TID 0000.0001)                 0.000000000000000E+00
(PID.TID 0000.0001)     ;
(PID.TID 0000.0001) PTRACERS_diffK4 = /* Biharmonic Diffusivity */
(PID.TID 0000.0001)                 0.000000000000000E+00
(PID.TID 0000.0001)     ;
(PID.TID 0000.0001) PTRACERS_diffKrNr = /* Vertical Diffusivity */
(PID.TID 0000.0001)    24 @  1.000000000000000E-06              /* K =  1: 24 */
(PID.TID 0000.0001)     ;
(PID.TID 0000.0001) PTRACERS_useGMRedi = /* apply GM-Redi */
(PID.TID 0000.0001)                   F
(PID.TID 0000.0001)     ;
(PID.TID 0000.0001) PTRACERS_useDWNSLP = /* apply DOWN-SLOPE Flow */
(PID.TID 0000.0001)                   F
(PID.TID 0000.0001)     ;
(PID.TID 0000.0001) PTRACERS_useKPP = /* apply KPP scheme */
(PID.TID 0000.0001)                   T
(PID.TID 0000.0001)     ;
(PID.TID 0000.0001) PTRACERS_ref = /* Reference vertical profile */
(PID.TID 0000.0001)    24 @  0.000000000000000E+00              /* K =  1: 24 */
(PID.TID 0000.0001)     ;
(PID.TID 0000.0001) PTRACERS_EvPrRn =/* tracer conc. in Evap. & Rain */
(PID.TID 0000.0001)                 1.234567000000000E+05
(PID.TID 0000.0001)     ;
(PID.TID 0000.0001)  -----------------------------------
(PID.TID 0000.0001)  tracer number :    2
(PID.TID 0000.0001) PTRACERS_ioLabel = /* tracer IO Label */
(PID.TID 0000.0001)               '02'
(PID.TID 0000.0001)     ;
(PID.TID 0000.0001) PTRACERS_advScheme = /* Advection Scheme */
(PID.TID 0000.0001)                      33
(PID.TID 0000.0001)     ;
(PID.TID 0000.0001) PTRACERS_ImplVertAdv = /* implicit vert. advection flag */
(PID.TID 0000.0001)                   F
(PID.TID 0000.0001)     ;
(PID.TID 0000.0001) PTRACERS_diffKh = /* Laplacian Diffusivity */
(PID.TID 0000.0001)                 0.000000000000000E+00
(PID.TID 0000.0001)     ;
(PID.TID 0000.0001) PTRACERS_diffK4 = /* Biharmonic Diffusivity */
(PID.TID 0000.0001)                 0.000000000000000E+00
(PID.TID 0000.0001)     ;
(PID.TID 0000.0001) PTRACERS_diffKrNr = /* Vertical Diffusivity */
(PID.TID 0000.0001)    24 @  1.000000000000000E-06              /* K =  1: 24 */
(PID.TID 0000.0001)     ;
(PID.TID 0000.0001) PTRACERS_useGMRedi = /* apply GM-Redi */
(PID.TID 0000.0001)                   F
(PID.TID 0000.0001)     ;
(PID.TID 0000.0001) PTRACERS_useDWNSLP = /* apply DOWN-SLOPE Flow */
(PID.TID 0000.0001)                   F
(PID.TID 0000.0001)     ;
(PID.TID 0000.0001) PTRACERS_useKPP = /* apply KPP scheme */
(PID.TID 0000.0001)                   T
(PID.TID 0000.0001)     ;
(PID.TID 0000.0001) PTRACERS_ref = /* Reference vertical profile */
(PID.TID 0000.0001)    24 @  0.000000000000000E+00              /* K =  1: 24 */
(PID.TID 0000.0001)     ;
(PID.TID 0000.0001) PTRACERS_EvPrRn =/* tracer conc. in Evap. & Rain */
(PID.TID 0000.0001)                 1.234567000000000E+05
(PID.TID 0000.0001)     ;
(PID.TID 0000.0001)  -----------------------------------
(PID.TID 0000.0001)  tracer number :    3
(PID.TID 0000.0001) PTRACERS_ioLabel = /* tracer IO Label */
(PID.TID 0000.0001)               '03'
(PID.TID 0000.0001)     ;
(PID.TID 0000.0001) PTRACERS_advScheme = /* Advection Scheme */
(PID.TID 0000.0001)                      33
(PID.TID 0000.0001)     ;
(PID.TID 0000.0001) PTRACERS_ImplVertAdv = /* implicit vert. advection flag */
(PID.TID 0000.0001)                   F
(PID.TID 0000.0001)     ;
(PID.TID 0000.0001) PTRACERS_diffKh = /* Laplacian Diffusivity */
(PID.TID 0000.0001)                 0.000000000000000E+00
(PID.TID 0000.0001)     ;
(PID.TID 0000.0001) PTRACERS_diffK4 = /* Biharmonic Diffusivity */
(PID.TID 0000.0001)                 0.000000000000000E+00
(PID.TID 0000.0001)     ;
(PID.TID 0000.0001) PTRACERS_diffKrNr = /* Vertical Diffusivity */
(PID.TID 0000.0001)    24 @  1.000000000000000E-06              /* K =  1: 24 */
(PID.TID 0000.0001)     ;
(PID.TID 0000.0001) PTRACERS_useGMRedi = /* apply GM-Redi */
(PID.TID 0000.0001)                   F
(PID.TID 0000.0001)     ;
(PID.TID 0000.0001) PTRACERS_useDWNSLP = /* apply DOWN-SLOPE Flow */
(PID.TID 0000.0001)                   F
(PID.TID 0000.0001)     ;
(PID.TID 0000.0001) PTRACERS_useKPP = /* apply KPP scheme */
(PID.TID 0000.0001)                   T
(PID.TID 0000.0001)     ;
(PID.TID 0000.0001) PTRACERS_ref = /* Reference vertical profile */
(PID.TID 0000.0001)    24 @  0.000000000000000E+00              /* K =  1: 24 */
(PID.TID 0000.0001)     ;
(PID.TID 0000.0001) PTRACERS_EvPrRn =/* tracer conc. in Evap. & Rain */
(PID.TID 0000.0001)                 1.234567000000000E+05
(PID.TID 0000.0001)     ;
(PID.TID 0000.0001)  -----------------------------------
(PID.TID 0000.0001)  tracer number :    4
(PID.TID 0000.0001) PTRACERS_ioLabel = /* tracer IO Label */
(PID.TID 0000.0001)               '04'
(PID.TID 0000.0001)     ;
(PID.TID 0000.0001) PTRACERS_advScheme = /* Advection Scheme */
(PID.TID 0000.0001)                      33
(PID.TID 0000.0001)     ;
(PID.TID 0000.0001) PTRACERS_ImplVertAdv = /* implicit vert. advection flag */
(PID.TID 0000.0001)                   F
(PID.TID 0000.0001)     ;
(PID.TID 0000.0001) PTRACERS_diffKh = /* Laplacian Diffusivity */
(PID.TID 0000.0001)                 0.000000000000000E+00
(PID.TID 0000.0001)     ;
(PID.TID 0000.0001) PTRACERS_diffK4 = /* Biharmonic Diffusivity */
(PID.TID 0000.0001)                 0.000000000000000E+00
(PID.TID 0000.0001)     ;
(PID.TID 0000.0001) PTRACERS_diffKrNr = /* Vertical Diffusivity */
(PID.TID 0000.0001)    24 @  1.000000000000000E-06              /* K =  1: 24 */
(PID.TID 0000.0001)     ;
(PID.TID 0000.0001) PTRACERS_useGMRedi = /* apply GM-Redi */
(PID.TID 0000.0001)                   F
(PID.TID 0000.0001)     ;
(PID.TID 0000.0001) PTRACERS_useDWNSLP = /* apply DOWN-SLOPE Flow */
(PID.TID 0000.0001)                   F
(PID.TID 0000.0001)     ;
(PID.TID 0000.0001) PTRACERS_useKPP = /* apply KPP scheme */
(PID.TID 0000.0001)                   T
(PID.TID 0000.0001)     ;
(PID.TID 0000.0001) PTRACERS_ref = /* Reference vertical profile */
(PID.TID 0000.0001)    24 @  0.000000000000000E+00              /* K =  1: 24 */
(PID.TID 0000.0001)     ;
(PID.TID 0000.0001) PTRACERS_EvPrRn =/* tracer conc. in Evap. & Rain */
(PID.TID 0000.0001)                 1.234567000000000E+05
(PID.TID 0000.0001)     ;
(PID.TID 0000.0001)  -----------------------------------
(PID.TID 0000.0001)  tracer number :    5
(PID.TID 0000.0001) PTRACERS_ioLabel = /* tracer IO Label */
(PID.TID 0000.0001)               '05'
(PID.TID 0000.0001)     ;
(PID.TID 0000.0001) PTRACERS_advScheme = /* Advection Scheme */
(PID.TID 0000.0001)                      33
(PID.TID 0000.0001)     ;
(PID.TID 0000.0001) PTRACERS_ImplVertAdv = /* implicit vert. advection flag */
(PID.TID 0000.0001)                   F
(PID.TID 0000.0001)     ;
(PID.TID 0000.0001) PTRACERS_diffKh = /* Laplacian Diffusivity */
(PID.TID 0000.0001)                 0.000000000000000E+00
(PID.TID 0000.0001)     ;
(PID.TID 0000.0001) PTRACERS_diffK4 = /* Biharmonic Diffusivity */
(PID.TID 0000.0001)                 0.000000000000000E+00
(PID.TID 0000.0001)     ;
(PID.TID 0000.0001) PTRACERS_diffKrNr = /* Vertical Diffusivity */
(PID.TID 0000.0001)    24 @  1.000000000000000E-06              /* K =  1: 24 */
(PID.TID 0000.0001)     ;
(PID.TID 0000.0001) PTRACERS_useGMRedi = /* apply GM-Redi */
(PID.TID 0000.0001)                   F
(PID.TID 0000.0001)     ;
(PID.TID 0000.0001) PTRACERS_useDWNSLP = /* apply DOWN-SLOPE Flow */
(PID.TID 0000.0001)                   F
(PID.TID 0000.0001)     ;
(PID.TID 0000.0001) PTRACERS_useKPP = /* apply KPP scheme */
(PID.TID 0000.0001)                   T
(PID.TID 0000.0001)     ;
(PID.TID 0000.0001) PTRACERS_ref = /* Reference vertical profile */
(PID.TID 0000.0001)    24 @  0.000000000000000E+00              /* K =  1: 24 */
(PID.TID 0000.0001)     ;
(PID.TID 0000.0001) PTRACERS_EvPrRn =/* tracer conc. in Evap. & Rain */
(PID.TID 0000.0001)                 1.234567000000000E+05
(PID.TID 0000.0001)     ;
(PID.TID 0000.0001)  -----------------------------------
(PID.TID 0000.0001)  tracer number :    6
(PID.TID 0000.0001) PTRACERS_ioLabel = /* tracer IO Label */
(PID.TID 0000.0001)               '06'
(PID.TID 0000.0001)     ;
(PID.TID 0000.0001) PTRACERS_advScheme = /* Advection Scheme */
(PID.TID 0000.0001)                      33
(PID.TID 0000.0001)     ;
(PID.TID 0000.0001) PTRACERS_ImplVertAdv = /* implicit vert. advection flag */
(PID.TID 0000.0001)                   F
(PID.TID 0000.0001)     ;
(PID.TID 0000.0001) PTRACERS_diffKh = /* Laplacian Diffusivity */
(PID.TID 0000.0001)                 0.000000000000000E+00
(PID.TID 0000.0001)     ;
(PID.TID 0000.0001) PTRACERS_diffK4 = /* Biharmonic Diffusivity */
(PID.TID 0000.0001)                 0.000000000000000E+00
(PID.TID 0000.0001)     ;
(PID.TID 0000.0001) PTRACERS_diffKrNr = /* Vertical Diffusivity */
(PID.TID 0000.0001)    24 @  1.000000000000000E-06              /* K =  1: 24 */
(PID.TID 0000.0001)     ;
(PID.TID 0000.0001) PTRACERS_useGMRedi = /* apply GM-Redi */
(PID.TID 0000.0001)                   F
(PID.TID 0000.0001)     ;
(PID.TID 0000.0001) PTRACERS_useDWNSLP = /* apply DOWN-SLOPE Flow */
(PID.TID 0000.0001)                   F
(PID.TID 0000.0001)     ;
(PID.TID 0000.0001) PTRACERS_useKPP = /* apply KPP scheme */
(PID.TID 0000.0001)                   T
(PID.TID 0000.0001)     ;
(PID.TID 0000.0001) PTRACERS_ref = /* Reference vertical profile */
(PID.TID 0000.0001)    24 @  0.000000000000000E+00              /* K =  1: 24 */
(PID.TID 0000.0001)     ;
(PID.TID 0000.0001) PTRACERS_EvPrRn =/* tracer conc. in Evap. & Rain */
(PID.TID 0000.0001)                 1.234567000000000E+05
(PID.TID 0000.0001)     ;
(PID.TID 0000.0001)  -----------------------------------
(PID.TID 0000.0001)  tracer number :    7
(PID.TID 0000.0001) PTRACERS_ioLabel = /* tracer IO Label */
(PID.TID 0000.0001)               '07'
(PID.TID 0000.0001)     ;
(PID.TID 0000.0001) PTRACERS_advScheme = /* Advection Scheme */
(PID.TID 0000.0001)                      33
(PID.TID 0000.0001)     ;
(PID.TID 0000.0001) PTRACERS_ImplVertAdv = /* implicit vert. advection flag */
(PID.TID 0000.0001)                   F
(PID.TID 0000.0001)     ;
(PID.TID 0000.0001) PTRACERS_diffKh = /* Laplacian Diffusivity */
(PID.TID 0000.0001)                 0.000000000000000E+00
(PID.TID 0000.0001)     ;
(PID.TID 0000.0001) PTRACERS_diffK4 = /* Biharmonic Diffusivity */
(PID.TID 0000.0001)                 0.000000000000000E+00
(PID.TID 0000.0001)     ;
(PID.TID 0000.0001) PTRACERS_diffKrNr = /* Vertical Diffusivity */
(PID.TID 0000.0001)    24 @  1.000000000000000E-06              /* K =  1: 24 */
(PID.TID 0000.0001)     ;
(PID.TID 0000.0001) PTRACERS_useGMRedi = /* apply GM-Redi */
(PID.TID 0000.0001)                   F
(PID.TID 0000.0001)     ;
(PID.TID 0000.0001) PTRACERS_useDWNSLP = /* apply DOWN-SLOPE Flow */
(PID.TID 0000.0001)                   F
(PID.TID 0000.0001)     ;
(PID.TID 0000.0001) PTRACERS_useKPP = /* apply KPP scheme */
(PID.TID 0000.0001)                   T
(PID.TID 0000.0001)     ;
(PID.TID 0000.0001) PTRACERS_ref = /* Reference vertical profile */
(PID.TID 0000.0001)    24 @  0.000000000000000E+00              /* K =  1: 24 */
(PID.TID 0000.0001)     ;
(PID.TID 0000.0001) PTRACERS_EvPrRn =/* tracer conc. in Evap. & Rain */
(PID.TID 0000.0001)                 1.234567000000000E+05
(PID.TID 0000.0001)     ;
(PID.TID 0000.0001)  -----------------------------------
(PID.TID 0000.0001)  tracer number :    8
(PID.TID 0000.0001) PTRACERS_ioLabel = /* tracer IO Label */
(PID.TID 0000.0001)               '08'
(PID.TID 0000.0001)     ;
(PID.TID 0000.0001) PTRACERS_advScheme = /* Advection Scheme */
(PID.TID 0000.0001)                      33
(PID.TID 0000.0001)     ;
(PID.TID 0000.0001) PTRACERS_ImplVertAdv = /* implicit vert. advection flag */
(PID.TID 0000.0001)                   F
(PID.TID 0000.0001)     ;
(PID.TID 0000.0001) PTRACERS_diffKh = /* Laplacian Diffusivity */
(PID.TID 0000.0001)                 0.000000000000000E+00
(PID.TID 0000.0001)     ;
(PID.TID 0000.0001) PTRACERS_diffK4 = /* Biharmonic Diffusivity */
(PID.TID 0000.0001)                 0.000000000000000E+00
(PID.TID 0000.0001)     ;
(PID.TID 0000.0001) PTRACERS_diffKrNr = /* Vertical Diffusivity */
(PID.TID 0000.0001)    24 @  1.000000000000000E-06              /* K =  1: 24 */
(PID.TID 0000.0001)     ;
(PID.TID 0000.0001) PTRACERS_useGMRedi = /* apply GM-Redi */
(PID.TID 0000.0001)                   F
(PID.TID 0000.0001)     ;
(PID.TID 0000.0001) PTRACERS_useDWNSLP = /* apply DOWN-SLOPE Flow */
(PID.TID 0000.0001)                   F
(PID.TID 0000.0001)     ;
(PID.TID 0000.0001) PTRACERS_useKPP = /* apply KPP scheme */
(PID.TID 0000.0001)                   T
(PID.TID 0000.0001)     ;
(PID.TID 0000.0001) PTRACERS_ref = /* Reference vertical profile */
(PID.TID 0000.0001)    24 @  0.000000000000000E+00              /* K =  1: 24 */
(PID.TID 0000.0001)     ;
(PID.TID 0000.0001) PTRACERS_EvPrRn =/* tracer conc. in Evap. & Rain */
(PID.TID 0000.0001)                 1.234567000000000E+05
(PID.TID 0000.0001)     ;
(PID.TID 0000.0001)  -----------------------------------
(PID.TID 0000.0001)  tracer number :    9
(PID.TID 0000.0001) PTRACERS_ioLabel = /* tracer IO Label */
(PID.TID 0000.0001)               '09'
(PID.TID 0000.0001)     ;
(PID.TID 0000.0001) PTRACERS_advScheme = /* Advection Scheme */
(PID.TID 0000.0001)                      33
(PID.TID 0000.0001)     ;
(PID.TID 0000.0001) PTRACERS_ImplVertAdv = /* implicit vert. advection flag */
(PID.TID 0000.0001)                   F
(PID.TID 0000.0001)     ;
(PID.TID 0000.0001) PTRACERS_diffKh = /* Laplacian Diffusivity */
(PID.TID 0000.0001)                 0.000000000000000E+00
(PID.TID 0000.0001)     ;
(PID.TID 0000.0001) PTRACERS_diffK4 = /* Biharmonic Diffusivity */
(PID.TID 0000.0001)                 0.000000000000000E+00
(PID.TID 0000.0001)     ;
(PID.TID 0000.0001) PTRACERS_diffKrNr = /* Vertical Diffusivity */
(PID.TID 0000.0001)    24 @  1.000000000000000E-06              /* K =  1: 24 */
(PID.TID 0000.0001)     ;
(PID.TID 0000.0001) PTRACERS_useGMRedi = /* apply GM-Redi */
(PID.TID 0000.0001)                   F
(PID.TID 0000.0001)     ;
(PID.TID 0000.0001) PTRACERS_useDWNSLP = /* apply DOWN-SLOPE Flow */
(PID.TID 0000.0001)                   F
(PID.TID 0000.0001)     ;
(PID.TID 0000.0001) PTRACERS_useKPP = /* apply KPP scheme */
(PID.TID 0000.0001)                   T
(PID.TID 0000.0001)     ;
(PID.TID 0000.0001) PTRACERS_ref = /* Reference vertical profile */
(PID.TID 0000.0001)    24 @  0.000000000000000E+00              /* K =  1: 24 */
(PID.TID 0000.0001)     ;
(PID.TID 0000.0001) PTRACERS_EvPrRn =/* tracer conc. in Evap. & Rain */
(PID.TID 0000.0001)                 1.234567000000000E+05
(PID.TID 0000.0001)     ;
(PID.TID 0000.0001)  -----------------------------------
(PID.TID 0000.0001)  tracer number :   10
(PID.TID 0000.0001) PTRACERS_ioLabel = /* tracer IO Label */
(PID.TID 0000.0001)               '10'
(PID.TID 0000.0001)     ;
(PID.TID 0000.0001) PTRACERS_advScheme = /* Advection Scheme */
(PID.TID 0000.0001)                      33
(PID.TID 0000.0001)     ;
(PID.TID 0000.0001) PTRACERS_ImplVertAdv = /* implicit vert. advection flag */
(PID.TID 0000.0001)                   F
(PID.TID 0000.0001)     ;
(PID.TID 0000.0001) PTRACERS_diffKh = /* Laplacian Diffusivity */
(PID.TID 0000.0001)                 0.000000000000000E+00
(PID.TID 0000.0001)     ;
(PID.TID 0000.0001) PTRACERS_diffK4 = /* Biharmonic Diffusivity */
(PID.TID 0000.0001)                 0.000000000000000E+00
(PID.TID 0000.0001)     ;
(PID.TID 0000.0001) PTRACERS_diffKrNr = /* Vertical Diffusivity */
(PID.TID 0000.0001)    24 @  1.000000000000000E-06              /* K =  1: 24 */
(PID.TID 0000.0001)     ;
(PID.TID 0000.0001) PTRACERS_useGMRedi = /* apply GM-Redi */
(PID.TID 0000.0001)                   F
(PID.TID 0000.0001)     ;
(PID.TID 0000.0001) PTRACERS_useDWNSLP = /* apply DOWN-SLOPE Flow */
(PID.TID 0000.0001)                   F
(PID.TID 0000.0001)     ;
(PID.TID 0000.0001) PTRACERS_useKPP = /* apply KPP scheme */
(PID.TID 0000.0001)                   T
(PID.TID 0000.0001)     ;
(PID.TID 0000.0001) PTRACERS_ref = /* Reference vertical profile */
(PID.TID 0000.0001)    24 @  0.000000000000000E+00              /* K =  1: 24 */
(PID.TID 0000.0001)     ;
(PID.TID 0000.0001) PTRACERS_EvPrRn =/* tracer conc. in Evap. & Rain */
(PID.TID 0000.0001)                 1.234567000000000E+05
(PID.TID 0000.0001)     ;
(PID.TID 0000.0001)  -----------------------------------
(PID.TID 0000.0001)  tracer number :   11
(PID.TID 0000.0001) PTRACERS_ioLabel = /* tracer IO Label */
(PID.TID 0000.0001)               '11'
(PID.TID 0000.0001)     ;
(PID.TID 0000.0001) PTRACERS_advScheme = /* Advection Scheme */
(PID.TID 0000.0001)                      33
(PID.TID 0000.0001)     ;
(PID.TID 0000.0001) PTRACERS_ImplVertAdv = /* implicit vert. advection flag */
(PID.TID 0000.0001)                   F
(PID.TID 0000.0001)     ;
(PID.TID 0000.0001) PTRACERS_diffKh = /* Laplacian Diffusivity */
(PID.TID 0000.0001)                 0.000000000000000E+00
(PID.TID 0000.0001)     ;
(PID.TID 0000.0001) PTRACERS_diffK4 = /* Biharmonic Diffusivity */
(PID.TID 0000.0001)                 0.000000000000000E+00
(PID.TID 0000.0001)     ;
(PID.TID 0000.0001) PTRACERS_diffKrNr = /* Vertical Diffusivity */
(PID.TID 0000.0001)    24 @  1.000000000000000E-06              /* K =  1: 24 */
(PID.TID 0000.0001)     ;
(PID.TID 0000.0001) PTRACERS_useGMRedi = /* apply GM-Redi */
(PID.TID 0000.0001)                   F
(PID.TID 0000.0001)     ;
(PID.TID 0000.0001) PTRACERS_useDWNSLP = /* apply DOWN-SLOPE Flow */
(PID.TID 0000.0001)                   F
(PID.TID 0000.0001)     ;
(PID.TID 0000.0001) PTRACERS_useKPP = /* apply KPP scheme */
(PID.TID 0000.0001)                   T
(PID.TID 0000.0001)     ;
(PID.TID 0000.0001) PTRACERS_ref = /* Reference vertical profile */
(PID.TID 0000.0001)    24 @  0.000000000000000E+00              /* K =  1: 24 */
(PID.TID 0000.0001)     ;
(PID.TID 0000.0001) PTRACERS_EvPrRn =/* tracer conc. in Evap. & Rain */
(PID.TID 0000.0001)                 1.234567000000000E+05
(PID.TID 0000.0001)     ;
(PID.TID 0000.0001)  -----------------------------------
(PID.TID 0000.0001)  tracer number :   12
(PID.TID 0000.0001) PTRACERS_ioLabel = /* tracer IO Label */
(PID.TID 0000.0001)               '12'
(PID.TID 0000.0001)     ;
(PID.TID 0000.0001) PTRACERS_advScheme = /* Advection Scheme */
(PID.TID 0000.0001)                      33
(PID.TID 0000.0001)     ;
(PID.TID 0000.0001) PTRACERS_ImplVertAdv = /* implicit vert. advection flag */
(PID.TID 0000.0001)                   F
(PID.TID 0000.0001)     ;
(PID.TID 0000.0001) PTRACERS_diffKh = /* Laplacian Diffusivity */
(PID.TID 0000.0001)                 0.000000000000000E+00
(PID.TID 0000.0001)     ;
(PID.TID 0000.0001) PTRACERS_diffK4 = /* Biharmonic Diffusivity */
(PID.TID 0000.0001)                 0.000000000000000E+00
(PID.TID 0000.0001)     ;
(PID.TID 0000.0001) PTRACERS_diffKrNr = /* Vertical Diffusivity */
(PID.TID 0000.0001)    24 @  1.000000000000000E-06              /* K =  1: 24 */
(PID.TID 0000.0001)     ;
(PID.TID 0000.0001) PTRACERS_useGMRedi = /* apply GM-Redi */
(PID.TID 0000.0001)                   F
(PID.TID 0000.0001)     ;
(PID.TID 0000.0001) PTRACERS_useDWNSLP = /* apply DOWN-SLOPE Flow */
(PID.TID 0000.0001)                   F
(PID.TID 0000.0001)     ;
(PID.TID 0000.0001) PTRACERS_useKPP = /* apply KPP scheme */
(PID.TID 0000.0001)                   T
(PID.TID 0000.0001)     ;
(PID.TID 0000.0001) PTRACERS_ref = /* Reference vertical profile */
(PID.TID 0000.0001)    24 @  0.000000000000000E+00              /* K =  1: 24 */
(PID.TID 0000.0001)     ;
(PID.TID 0000.0001) PTRACERS_EvPrRn =/* tracer conc. in Evap. & Rain */
(PID.TID 0000.0001)                 1.234567000000000E+05
(PID.TID 0000.0001)     ;
(PID.TID 0000.0001)  -----------------------------------
(PID.TID 0000.0001)  tracer number :   13
(PID.TID 0000.0001) PTRACERS_ioLabel = /* tracer IO Label */
(PID.TID 0000.0001)               '13'
(PID.TID 0000.0001)     ;
(PID.TID 0000.0001) PTRACERS_advScheme = /* Advection Scheme */
(PID.TID 0000.0001)                      33
(PID.TID 0000.0001)     ;
(PID.TID 0000.0001) PTRACERS_ImplVertAdv = /* implicit vert. advection flag */
(PID.TID 0000.0001)                   F
(PID.TID 0000.0001)     ;
(PID.TID 0000.0001) PTRACERS_diffKh = /* Laplacian Diffusivity */
(PID.TID 0000.0001)                 0.000000000000000E+00
(PID.TID 0000.0001)     ;
(PID.TID 0000.0001) PTRACERS_diffK4 = /* Biharmonic Diffusivity */
(PID.TID 0000.0001)                 0.000000000000000E+00
(PID.TID 0000.0001)     ;
(PID.TID 0000.0001) PTRACERS_diffKrNr = /* Vertical Diffusivity */
(PID.TID 0000.0001)    24 @  1.000000000000000E-06              /* K =  1: 24 */
(PID.TID 0000.0001)     ;
(PID.TID 0000.0001) PTRACERS_useGMRedi = /* apply GM-Redi */
(PID.TID 0000.0001)                   F
(PID.TID 0000.0001)     ;
(PID.TID 0000.0001) PTRACERS_useDWNSLP = /* apply DOWN-SLOPE Flow */
(PID.TID 0000.0001)                   F
(PID.TID 0000.0001)     ;
(PID.TID 0000.0001) PTRACERS_useKPP = /* apply KPP scheme */
(PID.TID 0000.0001)                   T
(PID.TID 0000.0001)     ;
(PID.TID 0000.0001) PTRACERS_ref = /* Reference vertical profile */
(PID.TID 0000.0001)    24 @  0.000000000000000E+00              /* K =  1: 24 */
(PID.TID 0000.0001)     ;
(PID.TID 0000.0001) PTRACERS_EvPrRn =/* tracer conc. in Evap. & Rain */
(PID.TID 0000.0001)                 1.234567000000000E+05
(PID.TID 0000.0001)     ;
(PID.TID 0000.0001)  -----------------------------------
(PID.TID 0000.0001)  tracer number :   14
(PID.TID 0000.0001) PTRACERS_ioLabel = /* tracer IO Label */
(PID.TID 0000.0001)               '14'
(PID.TID 0000.0001)     ;
(PID.TID 0000.0001) PTRACERS_advScheme = /* Advection Scheme */
(PID.TID 0000.0001)                      33
(PID.TID 0000.0001)     ;
(PID.TID 0000.0001) PTRACERS_ImplVertAdv = /* implicit vert. advection flag */
(PID.TID 0000.0001)                   F
(PID.TID 0000.0001)     ;
(PID.TID 0000.0001) PTRACERS_diffKh = /* Laplacian Diffusivity */
(PID.TID 0000.0001)                 0.000000000000000E+00
(PID.TID 0000.0001)     ;
(PID.TID 0000.0001) PTRACERS_diffK4 = /* Biharmonic Diffusivity */
(PID.TID 0000.0001)                 0.000000000000000E+00
(PID.TID 0000.0001)     ;
(PID.TID 0000.0001) PTRACERS_diffKrNr = /* Vertical Diffusivity */
(PID.TID 0000.0001)    24 @  1.000000000000000E-06              /* K =  1: 24 */
(PID.TID 0000.0001)     ;
(PID.TID 0000.0001) PTRACERS_useGMRedi = /* apply GM-Redi */
(PID.TID 0000.0001)                   F
(PID.TID 0000.0001)     ;
(PID.TID 0000.0001) PTRACERS_useDWNSLP = /* apply DOWN-SLOPE Flow */
(PID.TID 0000.0001)                   F
(PID.TID 0000.0001)     ;
(PID.TID 0000.0001) PTRACERS_useKPP = /* apply KPP scheme */
(PID.TID 0000.0001)                   T
(PID.TID 0000.0001)     ;
(PID.TID 0000.0001) PTRACERS_ref = /* Reference vertical profile */
(PID.TID 0000.0001)    24 @  0.000000000000000E+00              /* K =  1: 24 */
(PID.TID 0000.0001)     ;
(PID.TID 0000.0001) PTRACERS_EvPrRn =/* tracer conc. in Evap. & Rain */
(PID.TID 0000.0001)                 1.234567000000000E+05
(PID.TID 0000.0001)     ;
(PID.TID 0000.0001)  -----------------------------------
(PID.TID 0000.0001)  tracer number :   15
(PID.TID 0000.0001) PTRACERS_ioLabel = /* tracer IO Label */
(PID.TID 0000.0001)               '15'
(PID.TID 0000.0001)     ;
(PID.TID 0000.0001) PTRACERS_advScheme = /* Advection Scheme */
(PID.TID 0000.0001)                      33
(PID.TID 0000.0001)     ;
(PID.TID 0000.0001) PTRACERS_ImplVertAdv = /* implicit vert. advection flag */
(PID.TID 0000.0001)                   F
(PID.TID 0000.0001)     ;
(PID.TID 0000.0001) PTRACERS_diffKh = /* Laplacian Diffusivity */
(PID.TID 0000.0001)                 0.000000000000000E+00
(PID.TID 0000.0001)     ;
(PID.TID 0000.0001) PTRACERS_diffK4 = /* Biharmonic Diffusivity */
(PID.TID 0000.0001)                 0.000000000000000E+00
(PID.TID 0000.0001)     ;
(PID.TID 0000.0001) PTRACERS_diffKrNr = /* Vertical Diffusivity */
(PID.TID 0000.0001)    24 @  1.000000000000000E-06              /* K =  1: 24 */
(PID.TID 0000.0001)     ;
(PID.TID 0000.0001) PTRACERS_useGMRedi = /* apply GM-Redi */
(PID.TID 0000.0001)                   F
(PID.TID 0000.0001)     ;
(PID.TID 0000.0001) PTRACERS_useDWNSLP = /* apply DOWN-SLOPE Flow */
(PID.TID 0000.0001)                   F
(PID.TID 0000.0001)     ;
(PID.TID 0000.0001) PTRACERS_useKPP = /* apply KPP scheme */
(PID.TID 0000.0001)                   T
(PID.TID 0000.0001)     ;
(PID.TID 0000.0001) PTRACERS_ref = /* Reference vertical profile */
(PID.TID 0000.0001)    24 @  0.000000000000000E+00              /* K =  1: 24 */
(PID.TID 0000.0001)     ;
(PID.TID 0000.0001) PTRACERS_EvPrRn =/* tracer conc. in Evap. & Rain */
(PID.TID 0000.0001)                 1.234567000000000E+05
(PID.TID 0000.0001)     ;
(PID.TID 0000.0001)  -----------------------------------
(PID.TID 0000.0001)  tracer number :   16
(PID.TID 0000.0001) PTRACERS_ioLabel = /* tracer IO Label */
(PID.TID 0000.0001)               '16'
(PID.TID 0000.0001)     ;
(PID.TID 0000.0001) PTRACERS_advScheme = /* Advection Scheme */
(PID.TID 0000.0001)                      33
(PID.TID 0000.0001)     ;
(PID.TID 0000.0001) PTRACERS_ImplVertAdv = /* implicit vert. advection flag */
(PID.TID 0000.0001)                   F
(PID.TID 0000.0001)     ;
(PID.TID 0000.0001) PTRACERS_diffKh = /* Laplacian Diffusivity */
(PID.TID 0000.0001)                 0.000000000000000E+00
(PID.TID 0000.0001)     ;
(PID.TID 0000.0001) PTRACERS_diffK4 = /* Biharmonic Diffusivity */
(PID.TID 0000.0001)                 0.000000000000000E+00
(PID.TID 0000.0001)     ;
(PID.TID 0000.0001) PTRACERS_diffKrNr = /* Vertical Diffusivity */
(PID.TID 0000.0001)    24 @  1.000000000000000E-06              /* K =  1: 24 */
(PID.TID 0000.0001)     ;
(PID.TID 0000.0001) PTRACERS_useGMRedi = /* apply GM-Redi */
(PID.TID 0000.0001)                   F
(PID.TID 0000.0001)     ;
(PID.TID 0000.0001) PTRACERS_useDWNSLP = /* apply DOWN-SLOPE Flow */
(PID.TID 0000.0001)                   F
(PID.TID 0000.0001)     ;
(PID.TID 0000.0001) PTRACERS_useKPP = /* apply KPP scheme */
(PID.TID 0000.0001)                   T
(PID.TID 0000.0001)     ;
(PID.TID 0000.0001) PTRACERS_ref = /* Reference vertical profile */
(PID.TID 0000.0001)    24 @  0.000000000000000E+00              /* K =  1: 24 */
(PID.TID 0000.0001)     ;
(PID.TID 0000.0001) PTRACERS_EvPrRn =/* tracer conc. in Evap. & Rain */
(PID.TID 0000.0001)                 1.234567000000000E+05
(PID.TID 0000.0001)     ;
(PID.TID 0000.0001)  -----------------------------------
(PID.TID 0000.0001)  tracer number :   17
(PID.TID 0000.0001) PTRACERS_ioLabel = /* tracer IO Label */
(PID.TID 0000.0001)               '17'
(PID.TID 0000.0001)     ;
(PID.TID 0000.0001) PTRACERS_advScheme = /* Advection Scheme */
(PID.TID 0000.0001)                      33
(PID.TID 0000.0001)     ;
(PID.TID 0000.0001) PTRACERS_ImplVertAdv = /* implicit vert. advection flag */
(PID.TID 0000.0001)                   F
(PID.TID 0000.0001)     ;
(PID.TID 0000.0001) PTRACERS_diffKh = /* Laplacian Diffusivity */
(PID.TID 0000.0001)                 0.000000000000000E+00
(PID.TID 0000.0001)     ;
(PID.TID 0000.0001) PTRACERS_diffK4 = /* Biharmonic Diffusivity */
(PID.TID 0000.0001)                 0.000000000000000E+00
(PID.TID 0000.0001)     ;
(PID.TID 0000.0001) PTRACERS_diffKrNr = /* Vertical Diffusivity */
(PID.TID 0000.0001)    24 @  1.000000000000000E-06              /* K =  1: 24 */
(PID.TID 0000.0001)     ;
(PID.TID 0000.0001) PTRACERS_useGMRedi = /* apply GM-Redi */
(PID.TID 0000.0001)                   F
(PID.TID 0000.0001)     ;
(PID.TID 0000.0001) PTRACERS_useDWNSLP = /* apply DOWN-SLOPE Flow */
(PID.TID 0000.0001)                   F
(PID.TID 0000.0001)     ;
(PID.TID 0000.0001) PTRACERS_useKPP = /* apply KPP scheme */
(PID.TID 0000.0001)                   T
(PID.TID 0000.0001)     ;
(PID.TID 0000.0001) PTRACERS_ref = /* Reference vertical profile */
(PID.TID 0000.0001)    24 @  0.000000000000000E+00              /* K =  1: 24 */
(PID.TID 0000.0001)     ;
(PID.TID 0000.0001) PTRACERS_EvPrRn =/* tracer conc. in Evap. & Rain */
(PID.TID 0000.0001)                 1.234567000000000E+05
(PID.TID 0000.0001)     ;
(PID.TID 0000.0001)  -----------------------------------
(PID.TID 0000.0001)  tracer number :   18
(PID.TID 0000.0001) PTRACERS_ioLabel = /* tracer IO Label */
(PID.TID 0000.0001)               '18'
(PID.TID 0000.0001)     ;
(PID.TID 0000.0001) PTRACERS_advScheme = /* Advection Scheme */
(PID.TID 0000.0001)                      33
(PID.TID 0000.0001)     ;
(PID.TID 0000.0001) PTRACERS_ImplVertAdv = /* implicit vert. advection flag */
(PID.TID 0000.0001)                   F
(PID.TID 0000.0001)     ;
(PID.TID 0000.0001) PTRACERS_diffKh = /* Laplacian Diffusivity */
(PID.TID 0000.0001)                 0.000000000000000E+00
(PID.TID 0000.0001)     ;
(PID.TID 0000.0001) PTRACERS_diffK4 = /* Biharmonic Diffusivity */
(PID.TID 0000.0001)                 0.000000000000000E+00
(PID.TID 0000.0001)     ;
(PID.TID 0000.0001) PTRACERS_diffKrNr = /* Vertical Diffusivity */
(PID.TID 0000.0001)    24 @  1.000000000000000E-06              /* K =  1: 24 */
(PID.TID 0000.0001)     ;
(PID.TID 0000.0001) PTRACERS_useGMRedi = /* apply GM-Redi */
(PID.TID 0000.0001)                   F
(PID.TID 0000.0001)     ;
(PID.TID 0000.0001) PTRACERS_useDWNSLP = /* apply DOWN-SLOPE Flow */
(PID.TID 0000.0001)                   F
(PID.TID 0000.0001)     ;
(PID.TID 0000.0001) PTRACERS_useKPP = /* apply KPP scheme */
(PID.TID 0000.0001)                   T
(PID.TID 0000.0001)     ;
(PID.TID 0000.0001) PTRACERS_ref = /* Reference vertical profile */
(PID.TID 0000.0001)    24 @  0.000000000000000E+00              /* K =  1: 24 */
(PID.TID 0000.0001)     ;
(PID.TID 0000.0001) PTRACERS_EvPrRn =/* tracer conc. in Evap. & Rain */
(PID.TID 0000.0001)                 1.234567000000000E+05
(PID.TID 0000.0001)     ;
(PID.TID 0000.0001)  -----------------------------------
(PID.TID 0000.0001)  tracer number :   19
(PID.TID 0000.0001) PTRACERS_ioLabel = /* tracer IO Label */
(PID.TID 0000.0001)               '19'
(PID.TID 0000.0001)     ;
(PID.TID 0000.0001) PTRACERS_advScheme = /* Advection Scheme */
(PID.TID 0000.0001)                      33
(PID.TID 0000.0001)     ;
(PID.TID 0000.0001) PTRACERS_ImplVertAdv = /* implicit vert. advection flag */
(PID.TID 0000.0001)                   F
(PID.TID 0000.0001)     ;
(PID.TID 0000.0001) PTRACERS_diffKh = /* Laplacian Diffusivity */
(PID.TID 0000.0001)                 0.000000000000000E+00
(PID.TID 0000.0001)     ;
(PID.TID 0000.0001) PTRACERS_diffK4 = /* Biharmonic Diffusivity */
(PID.TID 0000.0001)                 0.000000000000000E+00
(PID.TID 0000.0001)     ;
(PID.TID 0000.0001) PTRACERS_diffKrNr = /* Vertical Diffusivity */
(PID.TID 0000.0001)    24 @  1.000000000000000E-06              /* K =  1: 24 */
(PID.TID 0000.0001)     ;
(PID.TID 0000.0001) PTRACERS_useGMRedi = /* apply GM-Redi */
(PID.TID 0000.0001)                   F
(PID.TID 0000.0001)     ;
(PID.TID 0000.0001) PTRACERS_useDWNSLP = /* apply DOWN-SLOPE Flow */
(PID.TID 0000.0001)                   F
(PID.TID 0000.0001)     ;
(PID.TID 0000.0001) PTRACERS_useKPP = /* apply KPP scheme */
(PID.TID 0000.0001)                   T
(PID.TID 0000.0001)     ;
(PID.TID 0000.0001) PTRACERS_ref = /* Reference vertical profile */
(PID.TID 0000.0001)    24 @  0.000000000000000E+00              /* K =  1: 24 */
(PID.TID 0000.0001)     ;
(PID.TID 0000.0001) PTRACERS_EvPrRn =/* tracer conc. in Evap. & Rain */
(PID.TID 0000.0001)                 1.234567000000000E+05
(PID.TID 0000.0001)     ;
(PID.TID 0000.0001)  -----------------------------------
(PID.TID 0000.0001)  tracer number :   20
(PID.TID 0000.0001) PTRACERS_ioLabel = /* tracer IO Label */
(PID.TID 0000.0001)               '20'
(PID.TID 0000.0001)     ;
(PID.TID 0000.0001) PTRACERS_advScheme = /* Advection Scheme */
(PID.TID 0000.0001)                      33
(PID.TID 0000.0001)     ;
(PID.TID 0000.0001) PTRACERS_ImplVertAdv = /* implicit vert. advection flag */
(PID.TID 0000.0001)                   F
(PID.TID 0000.0001)     ;
(PID.TID 0000.0001) PTRACERS_diffKh = /* Laplacian Diffusivity */
(PID.TID 0000.0001)                 0.000000000000000E+00
(PID.TID 0000.0001)     ;
(PID.TID 0000.0001) PTRACERS_diffK4 = /* Biharmonic Diffusivity */
(PID.TID 0000.0001)                 0.000000000000000E+00
(PID.TID 0000.0001)     ;
(PID.TID 0000.0001) PTRACERS_diffKrNr = /* Vertical Diffusivity */
(PID.TID 0000.0001)    24 @  1.000000000000000E-06              /* K =  1: 24 */
(PID.TID 0000.0001)     ;
(PID.TID 0000.0001) PTRACERS_useGMRedi = /* apply GM-Redi */
(PID.TID 0000.0001)                   F
(PID.TID 0000.0001)     ;
(PID.TID 0000.0001) PTRACERS_useDWNSLP = /* apply DOWN-SLOPE Flow */
(PID.TID 0000.0001)                   F
(PID.TID 0000.0001)     ;
(PID.TID 0000.0001) PTRACERS_useKPP = /* apply KPP scheme */
(PID.TID 0000.0001)                   T
(PID.TID 0000.0001)     ;
(PID.TID 0000.0001) PTRACERS_ref = /* Reference vertical profile */
(PID.TID 0000.0001)    24 @  0.000000000000000E+00              /* K =  1: 24 */
(PID.TID 0000.0001)     ;
(PID.TID 0000.0001) PTRACERS_EvPrRn =/* tracer conc. in Evap. & Rain */
(PID.TID 0000.0001)                 1.234567000000000E+05
(PID.TID 0000.0001)     ;
(PID.TID 0000.0001)  -----------------------------------
(PID.TID 0000.0001)  tracer number :   21
(PID.TID 0000.0001) PTRACERS_ioLabel = /* tracer IO Label */
(PID.TID 0000.0001)               '21'
(PID.TID 0000.0001)     ;
(PID.TID 0000.0001) PTRACERS_advScheme = /* Advection Scheme */
(PID.TID 0000.0001)                      33
(PID.TID 0000.0001)     ;
(PID.TID 0000.0001) PTRACERS_ImplVertAdv = /* implicit vert. advection flag */
(PID.TID 0000.0001)                   F
(PID.TID 0000.0001)     ;
(PID.TID 0000.0001) PTRACERS_diffKh = /* Laplacian Diffusivity */
(PID.TID 0000.0001)                 0.000000000000000E+00
(PID.TID 0000.0001)     ;
(PID.TID 0000.0001) PTRACERS_diffK4 = /* Biharmonic Diffusivity */
(PID.TID 0000.0001)                 0.000000000000000E+00
(PID.TID 0000.0001)     ;
(PID.TID 0000.0001) PTRACERS_diffKrNr = /* Vertical Diffusivity */
(PID.TID 0000.0001)    24 @  1.000000000000000E-06              /* K =  1: 24 */
(PID.TID 0000.0001)     ;
(PID.TID 0000.0001) PTRACERS_useGMRedi = /* apply GM-Redi */
(PID.TID 0000.0001)                   F
(PID.TID 0000.0001)     ;
(PID.TID 0000.0001) PTRACERS_useDWNSLP = /* apply DOWN-SLOPE Flow */
(PID.TID 0000.0001)                   F
(PID.TID 0000.0001)     ;
(PID.TID 0000.0001) PTRACERS_useKPP = /* apply KPP scheme */
(PID.TID 0000.0001)                   T
(PID.TID 0000.0001)     ;
(PID.TID 0000.0001) PTRACERS_ref = /* Reference vertical profile */
(PID.TID 0000.0001)    24 @  0.000000000000000E+00              /* K =  1: 24 */
(PID.TID 0000.0001)     ;
(PID.TID 0000.0001) PTRACERS_EvPrRn =/* tracer conc. in Evap. & Rain */
(PID.TID 0000.0001)                 1.234567000000000E+05
(PID.TID 0000.0001)     ;
(PID.TID 0000.0001)  -----------------------------------
(PID.TID 0000.0001)  tracer number :   22
(PID.TID 0000.0001) PTRACERS_ioLabel = /* tracer IO Label */
(PID.TID 0000.0001)               '22'
(PID.TID 0000.0001)     ;
(PID.TID 0000.0001) PTRACERS_advScheme = /* Advection Scheme */
(PID.TID 0000.0001)                      33
(PID.TID 0000.0001)     ;
(PID.TID 0000.0001) PTRACERS_ImplVertAdv = /* implicit vert. advection flag */
(PID.TID 0000.0001)                   F
(PID.TID 0000.0001)     ;
(PID.TID 0000.0001) PTRACERS_diffKh = /* Laplacian Diffusivity */
(PID.TID 0000.0001)                 0.000000000000000E+00
(PID.TID 0000.0001)     ;
(PID.TID 0000.0001) PTRACERS_diffK4 = /* Biharmonic Diffusivity */
(PID.TID 0000.0001)                 0.000000000000000E+00
(PID.TID 0000.0001)     ;
(PID.TID 0000.0001) PTRACERS_diffKrNr = /* Vertical Diffusivity */
(PID.TID 0000.0001)    24 @  1.000000000000000E-06              /* K =  1: 24 */
(PID.TID 0000.0001)     ;
(PID.TID 0000.0001) PTRACERS_useGMRedi = /* apply GM-Redi */
(PID.TID 0000.0001)                   F
(PID.TID 0000.0001)     ;
(PID.TID 0000.0001) PTRACERS_useDWNSLP = /* apply DOWN-SLOPE Flow */
(PID.TID 0000.0001)                   F
(PID.TID 0000.0001)     ;
(PID.TID 0000.0001) PTRACERS_useKPP = /* apply KPP scheme */
(PID.TID 0000.0001)                   T
(PID.TID 0000.0001)     ;
(PID.TID 0000.0001) PTRACERS_ref = /* Reference vertical profile */
(PID.TID 0000.0001)    24 @  0.000000000000000E+00              /* K =  1: 24 */
(PID.TID 0000.0001)     ;
(PID.TID 0000.0001) PTRACERS_EvPrRn =/* tracer conc. in Evap. & Rain */
(PID.TID 0000.0001)                 1.234567000000000E+05
(PID.TID 0000.0001)     ;
(PID.TID 0000.0001)  -----------------------------------
(PID.TID 0000.0001)  tracer number :   23
(PID.TID 0000.0001) PTRACERS_ioLabel = /* tracer IO Label */
(PID.TID 0000.0001)               '23'
(PID.TID 0000.0001)     ;
(PID.TID 0000.0001) PTRACERS_advScheme = /* Advection Scheme */
(PID.TID 0000.0001)                      33
(PID.TID 0000.0001)     ;
(PID.TID 0000.0001) PTRACERS_ImplVertAdv = /* implicit vert. advection flag */
(PID.TID 0000.0001)                   F
(PID.TID 0000.0001)     ;
(PID.TID 0000.0001) PTRACERS_diffKh = /* Laplacian Diffusivity */
(PID.TID 0000.0001)                 0.000000000000000E+00
(PID.TID 0000.0001)     ;
(PID.TID 0000.0001) PTRACERS_diffK4 = /* Biharmonic Diffusivity */
(PID.TID 0000.0001)                 0.000000000000000E+00
(PID.TID 0000.0001)     ;
(PID.TID 0000.0001) PTRACERS_diffKrNr = /* Vertical Diffusivity */
(PID.TID 0000.0001)    24 @  1.000000000000000E-06              /* K =  1: 24 */
(PID.TID 0000.0001)     ;
(PID.TID 0000.0001) PTRACERS_useGMRedi = /* apply GM-Redi */
(PID.TID 0000.0001)                   F
(PID.TID 0000.0001)     ;
(PID.TID 0000.0001) PTRACERS_useDWNSLP = /* apply DOWN-SLOPE Flow */
(PID.TID 0000.0001)                   F
(PID.TID 0000.0001)     ;
(PID.TID 0000.0001) PTRACERS_useKPP = /* apply KPP scheme */
(PID.TID 0000.0001)                   T
(PID.TID 0000.0001)     ;
(PID.TID 0000.0001) PTRACERS_ref = /* Reference vertical profile */
(PID.TID 0000.0001)    24 @  0.000000000000000E+00              /* K =  1: 24 */
(PID.TID 0000.0001)     ;
(PID.TID 0000.0001) PTRACERS_EvPrRn =/* tracer conc. in Evap. & Rain */
(PID.TID 0000.0001)                 1.234567000000000E+05
(PID.TID 0000.0001)     ;
(PID.TID 0000.0001)  -----------------------------------
(PID.TID 0000.0001)  tracer number :   24
(PID.TID 0000.0001) PTRACERS_ioLabel = /* tracer IO Label */
(PID.TID 0000.0001)               '24'
(PID.TID 0000.0001)     ;
(PID.TID 0000.0001) PTRACERS_advScheme = /* Advection Scheme */
(PID.TID 0000.0001)                      33
(PID.TID 0000.0001)     ;
(PID.TID 0000.0001) PTRACERS_ImplVertAdv = /* implicit vert. advection flag */
(PID.TID 0000.0001)                   F
(PID.TID 0000.0001)     ;
(PID.TID 0000.0001) PTRACERS_diffKh = /* Laplacian Diffusivity */
(PID.TID 0000.0001)                 0.000000000000000E+00
(PID.TID 0000.0001)     ;
(PID.TID 0000.0001) PTRACERS_diffK4 = /* Biharmonic Diffusivity */
(PID.TID 0000.0001)                 0.000000000000000E+00
(PID.TID 0000.0001)     ;
(PID.TID 0000.0001) PTRACERS_diffKrNr = /* Vertical Diffusivity */
(PID.TID 0000.0001)    24 @  1.000000000000000E-06              /* K =  1: 24 */
(PID.TID 0000.0001)     ;
(PID.TID 0000.0001) PTRACERS_useGMRedi = /* apply GM-Redi */
(PID.TID 0000.0001)                   F
(PID.TID 0000.0001)     ;
(PID.TID 0000.0001) PTRACERS_useDWNSLP = /* apply DOWN-SLOPE Flow */
(PID.TID 0000.0001)                   F
(PID.TID 0000.0001)     ;
(PID.TID 0000.0001) PTRACERS_useKPP = /* apply KPP scheme */
(PID.TID 0000.0001)                   T
(PID.TID 0000.0001)     ;
(PID.TID 0000.0001) PTRACERS_ref = /* Reference vertical profile */
(PID.TID 0000.0001)    24 @  0.000000000000000E+00              /* K =  1: 24 */
(PID.TID 0000.0001)     ;
(PID.TID 0000.0001) PTRACERS_EvPrRn =/* tracer conc. in Evap. & Rain */
(PID.TID 0000.0001)                 1.234567000000000E+05
(PID.TID 0000.0001)     ;
(PID.TID 0000.0001)  -----------------------------------
(PID.TID 0000.0001)  tracer number :   25
(PID.TID 0000.0001) PTRACERS_ioLabel = /* tracer IO Label */
(PID.TID 0000.0001)               '25'
(PID.TID 0000.0001)     ;
(PID.TID 0000.0001) PTRACERS_advScheme = /* Advection Scheme */
(PID.TID 0000.0001)                      33
(PID.TID 0000.0001)     ;
(PID.TID 0000.0001) PTRACERS_ImplVertAdv = /* implicit vert. advection flag */
(PID.TID 0000.0001)                   F
(PID.TID 0000.0001)     ;
(PID.TID 0000.0001) PTRACERS_diffKh = /* Laplacian Diffusivity */
(PID.TID 0000.0001)                 0.000000000000000E+00
(PID.TID 0000.0001)     ;
(PID.TID 0000.0001) PTRACERS_diffK4 = /* Biharmonic Diffusivity */
(PID.TID 0000.0001)                 0.000000000000000E+00
(PID.TID 0000.0001)     ;
(PID.TID 0000.0001) PTRACERS_diffKrNr = /* Vertical Diffusivity */
(PID.TID 0000.0001)    24 @  1.000000000000000E-06              /* K =  1: 24 */
(PID.TID 0000.0001)     ;
(PID.TID 0000.0001) PTRACERS_useGMRedi = /* apply GM-Redi */
(PID.TID 0000.0001)                   F
(PID.TID 0000.0001)     ;
(PID.TID 0000.0001) PTRACERS_useDWNSLP = /* apply DOWN-SLOPE Flow */
(PID.TID 0000.0001)                   F
(PID.TID 0000.0001)     ;
(PID.TID 0000.0001) PTRACERS_useKPP = /* apply KPP scheme */
(PID.TID 0000.0001)                   T
(PID.TID 0000.0001)     ;
(PID.TID 0000.0001) PTRACERS_ref = /* Reference vertical profile */
(PID.TID 0000.0001)    24 @  0.000000000000000E+00              /* K =  1: 24 */
(PID.TID 0000.0001)     ;
(PID.TID 0000.0001) PTRACERS_EvPrRn =/* tracer conc. in Evap. & Rain */
(PID.TID 0000.0001)                 1.234567000000000E+05
(PID.TID 0000.0001)     ;
(PID.TID 0000.0001)  -----------------------------------
(PID.TID 0000.0001)  tracer number :   26
(PID.TID 0000.0001) PTRACERS_ioLabel = /* tracer IO Label */
(PID.TID 0000.0001)               '26'
(PID.TID 0000.0001)     ;
(PID.TID 0000.0001) PTRACERS_advScheme = /* Advection Scheme */
(PID.TID 0000.0001)                      33
(PID.TID 0000.0001)     ;
(PID.TID 0000.0001) PTRACERS_ImplVertAdv = /* implicit vert. advection flag */
(PID.TID 0000.0001)                   F
(PID.TID 0000.0001)     ;
(PID.TID 0000.0001) PTRACERS_diffKh = /* Laplacian Diffusivity */
(PID.TID 0000.0001)                 0.000000000000000E+00
(PID.TID 0000.0001)     ;
(PID.TID 0000.0001) PTRACERS_diffK4 = /* Biharmonic Diffusivity */
(PID.TID 0000.0001)                 0.000000000000000E+00
(PID.TID 0000.0001)     ;
(PID.TID 0000.0001) PTRACERS_diffKrNr = /* Vertical Diffusivity */
(PID.TID 0000.0001)    24 @  1.000000000000000E-06              /* K =  1: 24 */
(PID.TID 0000.0001)     ;
(PID.TID 0000.0001) PTRACERS_useGMRedi = /* apply GM-Redi */
(PID.TID 0000.0001)                   F
(PID.TID 0000.0001)     ;
(PID.TID 0000.0001) PTRACERS_useDWNSLP = /* apply DOWN-SLOPE Flow */
(PID.TID 0000.0001)                   F
(PID.TID 0000.0001)     ;
(PID.TID 0000.0001) PTRACERS_useKPP = /* apply KPP scheme */
(PID.TID 0000.0001)                   T
(PID.TID 0000.0001)     ;
(PID.TID 0000.0001) PTRACERS_ref = /* Reference vertical profile */
(PID.TID 0000.0001)    24 @  0.000000000000000E+00              /* K =  1: 24 */
(PID.TID 0000.0001)     ;
(PID.TID 0000.0001) PTRACERS_EvPrRn =/* tracer conc. in Evap. & Rain */
(PID.TID 0000.0001)                 1.234567000000000E+05
(PID.TID 0000.0001)     ;
(PID.TID 0000.0001)  -----------------------------------
(PID.TID 0000.0001)  tracer number :   27
(PID.TID 0000.0001) PTRACERS_ioLabel = /* tracer IO Label */
(PID.TID 0000.0001)               '27'
(PID.TID 0000.0001)     ;
(PID.TID 0000.0001) PTRACERS_advScheme = /* Advection Scheme */
(PID.TID 0000.0001)                      33
(PID.TID 0000.0001)     ;
(PID.TID 0000.0001) PTRACERS_ImplVertAdv = /* implicit vert. advection flag */
(PID.TID 0000.0001)                   F
(PID.TID 0000.0001)     ;
(PID.TID 0000.0001) PTRACERS_diffKh = /* Laplacian Diffusivity */
(PID.TID 0000.0001)                 0.000000000000000E+00
(PID.TID 0000.0001)     ;
(PID.TID 0000.0001) PTRACERS_diffK4 = /* Biharmonic Diffusivity */
(PID.TID 0000.0001)                 0.000000000000000E+00
(PID.TID 0000.0001)     ;
(PID.TID 0000.0001) PTRACERS_diffKrNr = /* Vertical Diffusivity */
(PID.TID 0000.0001)    24 @  1.000000000000000E-06              /* K =  1: 24 */
(PID.TID 0000.0001)     ;
(PID.TID 0000.0001) PTRACERS_useGMRedi = /* apply GM-Redi */
(PID.TID 0000.0001)                   F
(PID.TID 0000.0001)     ;
(PID.TID 0000.0001) PTRACERS_useDWNSLP = /* apply DOWN-SLOPE Flow */
(PID.TID 0000.0001)                   F
(PID.TID 0000.0001)     ;
(PID.TID 0000.0001) PTRACERS_useKPP = /* apply KPP scheme */
(PID.TID 0000.0001)                   T
(PID.TID 0000.0001)     ;
(PID.TID 0000.0001) PTRACERS_ref = /* Reference vertical profile */
(PID.TID 0000.0001)    24 @  0.000000000000000E+00              /* K =  1: 24 */
(PID.TID 0000.0001)     ;
(PID.TID 0000.0001) PTRACERS_EvPrRn =/* tracer conc. in Evap. & Rain */
(PID.TID 0000.0001)                 1.234567000000000E+05
(PID.TID 0000.0001)     ;
(PID.TID 0000.0001)  -----------------------------------
(PID.TID 0000.0001)  tracer number :   28
(PID.TID 0000.0001) PTRACERS_ioLabel = /* tracer IO Label */
(PID.TID 0000.0001)               '28'
(PID.TID 0000.0001)     ;
(PID.TID 0000.0001) PTRACERS_advScheme = /* Advection Scheme */
(PID.TID 0000.0001)                      33
(PID.TID 0000.0001)     ;
(PID.TID 0000.0001) PTRACERS_ImplVertAdv = /* implicit vert. advection flag */
(PID.TID 0000.0001)                   F
(PID.TID 0000.0001)     ;
(PID.TID 0000.0001) PTRACERS_diffKh = /* Laplacian Diffusivity */
(PID.TID 0000.0001)                 0.000000000000000E+00
(PID.TID 0000.0001)     ;
(PID.TID 0000.0001) PTRACERS_diffK4 = /* Biharmonic Diffusivity */
(PID.TID 0000.0001)                 0.000000000000000E+00
(PID.TID 0000.0001)     ;
(PID.TID 0000.0001) PTRACERS_diffKrNr = /* Vertical Diffusivity */
(PID.TID 0000.0001)    24 @  1.000000000000000E-06              /* K =  1: 24 */
(PID.TID 0000.0001)     ;
(PID.TID 0000.0001) PTRACERS_useGMRedi = /* apply GM-Redi */
(PID.TID 0000.0001)                   F
(PID.TID 0000.0001)     ;
(PID.TID 0000.0001) PTRACERS_useDWNSLP = /* apply DOWN-SLOPE Flow */
(PID.TID 0000.0001)                   F
(PID.TID 0000.0001)     ;
(PID.TID 0000.0001) PTRACERS_useKPP = /* apply KPP scheme */
(PID.TID 0000.0001)                   T
(PID.TID 0000.0001)     ;
(PID.TID 0000.0001) PTRACERS_ref = /* Reference vertical profile */
(PID.TID 0000.0001)    24 @  0.000000000000000E+00              /* K =  1: 24 */
(PID.TID 0000.0001)     ;
(PID.TID 0000.0001) PTRACERS_EvPrRn =/* tracer conc. in Evap. & Rain */
(PID.TID 0000.0001)                 1.234567000000000E+05
(PID.TID 0000.0001)     ;
(PID.TID 0000.0001)  -----------------------------------
(PID.TID 0000.0001)  tracer number :   29
(PID.TID 0000.0001) PTRACERS_ioLabel = /* tracer IO Label */
(PID.TID 0000.0001)               '29'
(PID.TID 0000.0001)     ;
(PID.TID 0000.0001) PTRACERS_advScheme = /* Advection Scheme */
(PID.TID 0000.0001)                      33
(PID.TID 0000.0001)     ;
(PID.TID 0000.0001) PTRACERS_ImplVertAdv = /* implicit vert. advection flag */
(PID.TID 0000.0001)                   F
(PID.TID 0000.0001)     ;
(PID.TID 0000.0001) PTRACERS_diffKh = /* Laplacian Diffusivity */
(PID.TID 0000.0001)                 0.000000000000000E+00
(PID.TID 0000.0001)     ;
(PID.TID 0000.0001) PTRACERS_diffK4 = /* Biharmonic Diffusivity */
(PID.TID 0000.0001)                 0.000000000000000E+00
(PID.TID 0000.0001)     ;
(PID.TID 0000.0001) PTRACERS_diffKrNr = /* Vertical Diffusivity */
(PID.TID 0000.0001)    24 @  1.000000000000000E-06              /* K =  1: 24 */
(PID.TID 0000.0001)     ;
(PID.TID 0000.0001) PTRACERS_useGMRedi = /* apply GM-Redi */
(PID.TID 0000.0001)                   F
(PID.TID 0000.0001)     ;
(PID.TID 0000.0001) PTRACERS_useDWNSLP = /* apply DOWN-SLOPE Flow */
(PID.TID 0000.0001)                   F
(PID.TID 0000.0001)     ;
(PID.TID 0000.0001) PTRACERS_useKPP = /* apply KPP scheme */
(PID.TID 0000.0001)                   T
(PID.TID 0000.0001)     ;
(PID.TID 0000.0001) PTRACERS_ref = /* Reference vertical profile */
(PID.TID 0000.0001)    24 @  0.000000000000000E+00              /* K =  1: 24 */
(PID.TID 0000.0001)     ;
(PID.TID 0000.0001) PTRACERS_EvPrRn =/* tracer conc. in Evap. & Rain */
(PID.TID 0000.0001)                 1.234567000000000E+05
(PID.TID 0000.0001)     ;
(PID.TID 0000.0001)  -----------------------------------
(PID.TID 0000.0001)  tracer number :   30
(PID.TID 0000.0001) PTRACERS_ioLabel = /* tracer IO Label */
(PID.TID 0000.0001)               '30'
(PID.TID 0000.0001)     ;
(PID.TID 0000.0001) PTRACERS_advScheme = /* Advection Scheme */
(PID.TID 0000.0001)                      33
(PID.TID 0000.0001)     ;
(PID.TID 0000.0001) PTRACERS_ImplVertAdv = /* implicit vert. advection flag */
(PID.TID 0000.0001)                   F
(PID.TID 0000.0001)     ;
(PID.TID 0000.0001) PTRACERS_diffKh = /* Laplacian Diffusivity */
(PID.TID 0000.0001)                 0.000000000000000E+00
(PID.TID 0000.0001)     ;
(PID.TID 0000.0001) PTRACERS_diffK4 = /* Biharmonic Diffusivity */
(PID.TID 0000.0001)                 0.000000000000000E+00
(PID.TID 0000.0001)     ;
(PID.TID 0000.0001) PTRACERS_diffKrNr = /* Vertical Diffusivity */
(PID.TID 0000.0001)    24 @  1.000000000000000E-06              /* K =  1: 24 */
(PID.TID 0000.0001)     ;
(PID.TID 0000.0001) PTRACERS_useGMRedi = /* apply GM-Redi */
(PID.TID 0000.0001)                   F
(PID.TID 0000.0001)     ;
(PID.TID 0000.0001) PTRACERS_useDWNSLP = /* apply DOWN-SLOPE Flow */
(PID.TID 0000.0001)                   F
(PID.TID 0000.0001)     ;
(PID.TID 0000.0001) PTRACERS_useKPP = /* apply KPP scheme */
(PID.TID 0000.0001)                   T
(PID.TID 0000.0001)     ;
(PID.TID 0000.0001) PTRACERS_ref = /* Reference vertical profile */
(PID.TID 0000.0001)    24 @  0.000000000000000E+00              /* K =  1: 24 */
(PID.TID 0000.0001)     ;
(PID.TID 0000.0001) PTRACERS_EvPrRn =/* tracer conc. in Evap. & Rain */
(PID.TID 0000.0001)                 1.234567000000000E+05
(PID.TID 0000.0001)     ;
(PID.TID 0000.0001)  -----------------------------------
(PID.TID 0000.0001)  tracer number :   31
(PID.TID 0000.0001) PTRACERS_ioLabel = /* tracer IO Label */
(PID.TID 0000.0001)               '31'
(PID.TID 0000.0001)     ;
(PID.TID 0000.0001) PTRACERS_advScheme = /* Advection Scheme */
(PID.TID 0000.0001)                      33
(PID.TID 0000.0001)     ;
(PID.TID 0000.0001) PTRACERS_ImplVertAdv = /* implicit vert. advection flag */
(PID.TID 0000.0001)                   F
(PID.TID 0000.0001)     ;
(PID.TID 0000.0001) PTRACERS_diffKh = /* Laplacian Diffusivity */
(PID.TID 0000.0001)                 0.000000000000000E+00
(PID.TID 0000.0001)     ;
(PID.TID 0000.0001) PTRACERS_diffK4 = /* Biharmonic Diffusivity */
(PID.TID 0000.0001)                 0.000000000000000E+00
(PID.TID 0000.0001)     ;
(PID.TID 0000.0001) PTRACERS_diffKrNr = /* Vertical Diffusivity */
(PID.TID 0000.0001)    24 @  1.000000000000000E-06              /* K =  1: 24 */
(PID.TID 0000.0001)     ;
(PID.TID 0000.0001) PTRACERS_useGMRedi = /* apply GM-Redi */
(PID.TID 0000.0001)                   F
(PID.TID 0000.0001)     ;
(PID.TID 0000.0001) PTRACERS_useDWNSLP = /* apply DOWN-SLOPE Flow */
(PID.TID 0000.0001)                   F
(PID.TID 0000.0001)     ;
(PID.TID 0000.0001) PTRACERS_useKPP = /* apply KPP scheme */
(PID.TID 0000.0001)                   T
(PID.TID 0000.0001)     ;
(PID.TID 0000.0001) PTRACERS_ref = /* Reference vertical profile */
(PID.TID 0000.0001)    24 @  0.000000000000000E+00              /* K =  1: 24 */
(PID.TID 0000.0001)     ;
(PID.TID 0000.0001) PTRACERS_EvPrRn =/* tracer conc. in Evap. & Rain */
(PID.TID 0000.0001)                 1.234567000000000E+05
(PID.TID 0000.0001)     ;
(PID.TID 0000.0001)  -----------------------------------
(PID.TID 0000.0001)  tracer number :   32
(PID.TID 0000.0001) PTRACERS_ioLabel = /* tracer IO Label */
(PID.TID 0000.0001)               '32'
(PID.TID 0000.0001)     ;
(PID.TID 0000.0001) PTRACERS_advScheme = /* Advection Scheme */
(PID.TID 0000.0001)                      33
(PID.TID 0000.0001)     ;
(PID.TID 0000.0001) PTRACERS_ImplVertAdv = /* implicit vert. advection flag */
(PID.TID 0000.0001)                   F
(PID.TID 0000.0001)     ;
(PID.TID 0000.0001) PTRACERS_diffKh = /* Laplacian Diffusivity */
(PID.TID 0000.0001)                 0.000000000000000E+00
(PID.TID 0000.0001)     ;
(PID.TID 0000.0001) PTRACERS_diffK4 = /* Biharmonic Diffusivity */
(PID.TID 0000.0001)                 0.000000000000000E+00
(PID.TID 0000.0001)     ;
(PID.TID 0000.0001) PTRACERS_diffKrNr = /* Vertical Diffusivity */
(PID.TID 0000.0001)    24 @  1.000000000000000E-06              /* K =  1: 24 */
(PID.TID 0000.0001)     ;
(PID.TID 0000.0001) PTRACERS_useGMRedi = /* apply GM-Redi */
(PID.TID 0000.0001)                   F
(PID.TID 0000.0001)     ;
(PID.TID 0000.0001) PTRACERS_useDWNSLP = /* apply DOWN-SLOPE Flow */
(PID.TID 0000.0001)                   F
(PID.TID 0000.0001)     ;
(PID.TID 0000.0001) PTRACERS_useKPP = /* apply KPP scheme */
(PID.TID 0000.0001)                   T
(PID.TID 0000.0001)     ;
(PID.TID 0000.0001) PTRACERS_ref = /* Reference vertical profile */
(PID.TID 0000.0001)    24 @  0.000000000000000E+00              /* K =  1: 24 */
(PID.TID 0000.0001)     ;
(PID.TID 0000.0001) PTRACERS_EvPrRn =/* tracer conc. in Evap. & Rain */
(PID.TID 0000.0001)                 1.234567000000000E+05
(PID.TID 0000.0001)     ;
(PID.TID 0000.0001)  -----------------------------------
(PID.TID 0000.0001)  tracer number :   33
(PID.TID 0000.0001) PTRACERS_ioLabel = /* tracer IO Label */
(PID.TID 0000.0001)               '33'
(PID.TID 0000.0001)     ;
(PID.TID 0000.0001) PTRACERS_advScheme = /* Advection Scheme */
(PID.TID 0000.0001)                      33
(PID.TID 0000.0001)     ;
(PID.TID 0000.0001) PTRACERS_ImplVertAdv = /* implicit vert. advection flag */
(PID.TID 0000.0001)                   F
(PID.TID 0000.0001)     ;
(PID.TID 0000.0001) PTRACERS_diffKh = /* Laplacian Diffusivity */
(PID.TID 0000.0001)                 0.000000000000000E+00
(PID.TID 0000.0001)     ;
(PID.TID 0000.0001) PTRACERS_diffK4 = /* Biharmonic Diffusivity */
(PID.TID 0000.0001)                 0.000000000000000E+00
(PID.TID 0000.0001)     ;
(PID.TID 0000.0001) PTRACERS_diffKrNr = /* Vertical Diffusivity */
(PID.TID 0000.0001)    24 @  1.000000000000000E-06              /* K =  1: 24 */
(PID.TID 0000.0001)     ;
(PID.TID 0000.0001) PTRACERS_useGMRedi = /* apply GM-Redi */
(PID.TID 0000.0001)                   F
(PID.TID 0000.0001)     ;
(PID.TID 0000.0001) PTRACERS_useDWNSLP = /* apply DOWN-SLOPE Flow */
(PID.TID 0000.0001)                   F
(PID.TID 0000.0001)     ;
(PID.TID 0000.0001) PTRACERS_useKPP = /* apply KPP scheme */
(PID.TID 0000.0001)                   T
(PID.TID 0000.0001)     ;
(PID.TID 0000.0001) PTRACERS_ref = /* Reference vertical profile */
(PID.TID 0000.0001)    24 @  0.000000000000000E+00              /* K =  1: 24 */
(PID.TID 0000.0001)     ;
(PID.TID 0000.0001) PTRACERS_EvPrRn =/* tracer conc. in Evap. & Rain */
(PID.TID 0000.0001)                 1.234567000000000E+05
(PID.TID 0000.0001)     ;
(PID.TID 0000.0001)  -----------------------------------
(PID.TID 0000.0001)  tracer number :   34
(PID.TID 0000.0001) PTRACERS_ioLabel = /* tracer IO Label */
(PID.TID 0000.0001)               '34'
(PID.TID 0000.0001)     ;
(PID.TID 0000.0001) PTRACERS_advScheme = /* Advection Scheme */
(PID.TID 0000.0001)                      33
(PID.TID 0000.0001)     ;
(PID.TID 0000.0001) PTRACERS_ImplVertAdv = /* implicit vert. advection flag */
(PID.TID 0000.0001)                   F
(PID.TID 0000.0001)     ;
(PID.TID 0000.0001) PTRACERS_diffKh = /* Laplacian Diffusivity */
(PID.TID 0000.0001)                 0.000000000000000E+00
(PID.TID 0000.0001)     ;
(PID.TID 0000.0001) PTRACERS_diffK4 = /* Biharmonic Diffusivity */
(PID.TID 0000.0001)                 0.000000000000000E+00
(PID.TID 0000.0001)     ;
(PID.TID 0000.0001) PTRACERS_diffKrNr = /* Vertical Diffusivity */
(PID.TID 0000.0001)    24 @  1.000000000000000E-06              /* K =  1: 24 */
(PID.TID 0000.0001)     ;
(PID.TID 0000.0001) PTRACERS_useGMRedi = /* apply GM-Redi */
(PID.TID 0000.0001)                   F
(PID.TID 0000.0001)     ;
(PID.TID 0000.0001) PTRACERS_useDWNSLP = /* apply DOWN-SLOPE Flow */
(PID.TID 0000.0001)                   F
(PID.TID 0000.0001)     ;
(PID.TID 0000.0001) PTRACERS_useKPP = /* apply KPP scheme */
(PID.TID 0000.0001)                   T
(PID.TID 0000.0001)     ;
(PID.TID 0000.0001) PTRACERS_ref = /* Reference vertical profile */
(PID.TID 0000.0001)    24 @  0.000000000000000E+00              /* K =  1: 24 */
(PID.TID 0000.0001)     ;
(PID.TID 0000.0001) PTRACERS_EvPrRn =/* tracer conc. in Evap. & Rain */
(PID.TID 0000.0001)                 1.234567000000000E+05
(PID.TID 0000.0001)     ;
(PID.TID 0000.0001)  -----------------------------------
(PID.TID 0000.0001)  tracer number :   35
(PID.TID 0000.0001) PTRACERS_ioLabel = /* tracer IO Label */
(PID.TID 0000.0001)               '35'
(PID.TID 0000.0001)     ;
(PID.TID 0000.0001) PTRACERS_advScheme = /* Advection Scheme */
(PID.TID 0000.0001)                      33
(PID.TID 0000.0001)     ;
(PID.TID 0000.0001) PTRACERS_ImplVertAdv = /* implicit vert. advection flag */
(PID.TID 0000.0001)                   F
(PID.TID 0000.0001)     ;
(PID.TID 0000.0001) PTRACERS_diffKh = /* Laplacian Diffusivity */
(PID.TID 0000.0001)                 0.000000000000000E+00
(PID.TID 0000.0001)     ;
(PID.TID 0000.0001) PTRACERS_diffK4 = /* Biharmonic Diffusivity */
(PID.TID 0000.0001)                 0.000000000000000E+00
(PID.TID 0000.0001)     ;
(PID.TID 0000.0001) PTRACERS_diffKrNr = /* Vertical Diffusivity */
(PID.TID 0000.0001)    24 @  1.000000000000000E-06              /* K =  1: 24 */
(PID.TID 0000.0001)     ;
(PID.TID 0000.0001) PTRACERS_useGMRedi = /* apply GM-Redi */
(PID.TID 0000.0001)                   F
(PID.TID 0000.0001)     ;
(PID.TID 0000.0001) PTRACERS_useDWNSLP = /* apply DOWN-SLOPE Flow */
(PID.TID 0000.0001)                   F
(PID.TID 0000.0001)     ;
(PID.TID 0000.0001) PTRACERS_useKPP = /* apply KPP scheme */
(PID.TID 0000.0001)                   T
(PID.TID 0000.0001)     ;
(PID.TID 0000.0001) PTRACERS_ref = /* Reference vertical profile */
(PID.TID 0000.0001)    24 @  0.000000000000000E+00              /* K =  1: 24 */
(PID.TID 0000.0001)     ;
(PID.TID 0000.0001) PTRACERS_EvPrRn =/* tracer conc. in Evap. & Rain */
(PID.TID 0000.0001)                 1.234567000000000E+05
(PID.TID 0000.0001)     ;
(PID.TID 0000.0001)  -----------------------------------
(PID.TID 0000.0001)  tracer number :   36
(PID.TID 0000.0001) PTRACERS_ioLabel = /* tracer IO Label */
(PID.TID 0000.0001)               '36'
(PID.TID 0000.0001)     ;
(PID.TID 0000.0001) PTRACERS_advScheme = /* Advection Scheme */
(PID.TID 0000.0001)                      33
(PID.TID 0000.0001)     ;
(PID.TID 0000.0001) PTRACERS_ImplVertAdv = /* implicit vert. advection flag */
(PID.TID 0000.0001)                   F
(PID.TID 0000.0001)     ;
(PID.TID 0000.0001) PTRACERS_diffKh = /* Laplacian Diffusivity */
(PID.TID 0000.0001)                 0.000000000000000E+00
(PID.TID 0000.0001)     ;
(PID.TID 0000.0001) PTRACERS_diffK4 = /* Biharmonic Diffusivity */
(PID.TID 0000.0001)                 0.000000000000000E+00
(PID.TID 0000.0001)     ;
(PID.TID 0000.0001) PTRACERS_diffKrNr = /* Vertical Diffusivity */
(PID.TID 0000.0001)    24 @  1.000000000000000E-06              /* K =  1: 24 */
(PID.TID 0000.0001)     ;
(PID.TID 0000.0001) PTRACERS_useGMRedi = /* apply GM-Redi */
(PID.TID 0000.0001)                   F
(PID.TID 0000.0001)     ;
(PID.TID 0000.0001) PTRACERS_useDWNSLP = /* apply DOWN-SLOPE Flow */
(PID.TID 0000.0001)                   F
(PID.TID 0000.0001)     ;
(PID.TID 0000.0001) PTRACERS_useKPP = /* apply KPP scheme */
(PID.TID 0000.0001)                   T
(PID.TID 0000.0001)     ;
(PID.TID 0000.0001) PTRACERS_ref = /* Reference vertical profile */
(PID.TID 0000.0001)    24 @  0.000000000000000E+00              /* K =  1: 24 */
(PID.TID 0000.0001)     ;
(PID.TID 0000.0001) PTRACERS_EvPrRn =/* tracer conc. in Evap. & Rain */
(PID.TID 0000.0001)                 1.234567000000000E+05
(PID.TID 0000.0001)     ;
(PID.TID 0000.0001)  -----------------------------------
(PID.TID 0000.0001)  tracer number :   37
(PID.TID 0000.0001) PTRACERS_ioLabel = /* tracer IO Label */
(PID.TID 0000.0001)               '37'
(PID.TID 0000.0001)     ;
(PID.TID 0000.0001) PTRACERS_advScheme = /* Advection Scheme */
(PID.TID 0000.0001)                      33
(PID.TID 0000.0001)     ;
(PID.TID 0000.0001) PTRACERS_ImplVertAdv = /* implicit vert. advection flag */
(PID.TID 0000.0001)                   F
(PID.TID 0000.0001)     ;
(PID.TID 0000.0001) PTRACERS_diffKh = /* Laplacian Diffusivity */
(PID.TID 0000.0001)                 0.000000000000000E+00
(PID.TID 0000.0001)     ;
(PID.TID 0000.0001) PTRACERS_diffK4 = /* Biharmonic Diffusivity */
(PID.TID 0000.0001)                 0.000000000000000E+00
(PID.TID 0000.0001)     ;
(PID.TID 0000.0001) PTRACERS_diffKrNr = /* Vertical Diffusivity */
(PID.TID 0000.0001)    24 @  1.000000000000000E-06              /* K =  1: 24 */
(PID.TID 0000.0001)     ;
(PID.TID 0000.0001) PTRACERS_useGMRedi = /* apply GM-Redi */
(PID.TID 0000.0001)                   F
(PID.TID 0000.0001)     ;
(PID.TID 0000.0001) PTRACERS_useDWNSLP = /* apply DOWN-SLOPE Flow */
(PID.TID 0000.0001)                   F
(PID.TID 0000.0001)     ;
(PID.TID 0000.0001) PTRACERS_useKPP = /* apply KPP scheme */
(PID.TID 0000.0001)                   T
(PID.TID 0000.0001)     ;
(PID.TID 0000.0001) PTRACERS_ref = /* Reference vertical profile */
(PID.TID 0000.0001)    24 @  0.000000000000000E+00              /* K =  1: 24 */
(PID.TID 0000.0001)     ;
(PID.TID 0000.0001) PTRACERS_EvPrRn =/* tracer conc. in Evap. & Rain */
(PID.TID 0000.0001)                 1.234567000000000E+05
(PID.TID 0000.0001)     ;
(PID.TID 0000.0001)  -----------------------------------
(PID.TID 0000.0001)  tracer number :   38
(PID.TID 0000.0001) PTRACERS_ioLabel = /* tracer IO Label */
(PID.TID 0000.0001)               '38'
(PID.TID 0000.0001)     ;
(PID.TID 0000.0001) PTRACERS_advScheme = /* Advection Scheme */
(PID.TID 0000.0001)                      33
(PID.TID 0000.0001)     ;
(PID.TID 0000.0001) PTRACERS_ImplVertAdv = /* implicit vert. advection flag */
(PID.TID 0000.0001)                   F
(PID.TID 0000.0001)     ;
(PID.TID 0000.0001) PTRACERS_diffKh = /* Laplacian Diffusivity */
(PID.TID 0000.0001)                 0.000000000000000E+00
(PID.TID 0000.0001)     ;
(PID.TID 0000.0001) PTRACERS_diffK4 = /* Biharmonic Diffusivity */
(PID.TID 0000.0001)                 0.000000000000000E+00
(PID.TID 0000.0001)     ;
(PID.TID 0000.0001) PTRACERS_diffKrNr = /* Vertical Diffusivity */
(PID.TID 0000.0001)    24 @  1.000000000000000E-06              /* K =  1: 24 */
(PID.TID 0000.0001)     ;
(PID.TID 0000.0001) PTRACERS_useGMRedi = /* apply GM-Redi */
(PID.TID 0000.0001)                   F
(PID.TID 0000.0001)     ;
(PID.TID 0000.0001) PTRACERS_useDWNSLP = /* apply DOWN-SLOPE Flow */
(PID.TID 0000.0001)                   F
(PID.TID 0000.0001)     ;
(PID.TID 0000.0001) PTRACERS_useKPP = /* apply KPP scheme */
(PID.TID 0000.0001)                   T
(PID.TID 0000.0001)     ;
(PID.TID 0000.0001) PTRACERS_ref = /* Reference vertical profile */
(PID.TID 0000.0001)    24 @  0.000000000000000E+00              /* K =  1: 24 */
(PID.TID 0000.0001)     ;
(PID.TID 0000.0001) PTRACERS_EvPrRn =/* tracer conc. in Evap. & Rain */
(PID.TID 0000.0001)                 1.234567000000000E+05
(PID.TID 0000.0001)     ;
(PID.TID 0000.0001)  -----------------------------------
(PID.TID 0000.0001)  tracer number :   39
(PID.TID 0000.0001) PTRACERS_ioLabel = /* tracer IO Label */
(PID.TID 0000.0001)               '39'
(PID.TID 0000.0001)     ;
(PID.TID 0000.0001) PTRACERS_advScheme = /* Advection Scheme */
(PID.TID 0000.0001)                      33
(PID.TID 0000.0001)     ;
(PID.TID 0000.0001) PTRACERS_ImplVertAdv = /* implicit vert. advection flag */
(PID.TID 0000.0001)                   F
(PID.TID 0000.0001)     ;
(PID.TID 0000.0001) PTRACERS_diffKh = /* Laplacian Diffusivity */
(PID.TID 0000.0001)                 0.000000000000000E+00
(PID.TID 0000.0001)     ;
(PID.TID 0000.0001) PTRACERS_diffK4 = /* Biharmonic Diffusivity */
(PID.TID 0000.0001)                 0.000000000000000E+00
(PID.TID 0000.0001)     ;
(PID.TID 0000.0001) PTRACERS_diffKrNr = /* Vertical Diffusivity */
(PID.TID 0000.0001)    24 @  1.000000000000000E-06              /* K =  1: 24 */
(PID.TID 0000.0001)     ;
(PID.TID 0000.0001) PTRACERS_useGMRedi = /* apply GM-Redi */
(PID.TID 0000.0001)                   F
(PID.TID 0000.0001)     ;
(PID.TID 0000.0001) PTRACERS_useDWNSLP = /* apply DOWN-SLOPE Flow */
(PID.TID 0000.0001)                   F
(PID.TID 0000.0001)     ;
(PID.TID 0000.0001) PTRACERS_useKPP = /* apply KPP scheme */
(PID.TID 0000.0001)                   T
(PID.TID 0000.0001)     ;
(PID.TID 0000.0001) PTRACERS_ref = /* Reference vertical profile */
(PID.TID 0000.0001)    24 @  0.000000000000000E+00              /* K =  1: 24 */
(PID.TID 0000.0001)     ;
(PID.TID 0000.0001) PTRACERS_EvPrRn =/* tracer conc. in Evap. & Rain */
(PID.TID 0000.0001)                 1.234567000000000E+05
(PID.TID 0000.0001)     ;
(PID.TID 0000.0001)  -----------------------------------
(PID.TID 0000.0001)  tracer number :   40
(PID.TID 0000.0001) PTRACERS_ioLabel = /* tracer IO Label */
(PID.TID 0000.0001)               '40'
(PID.TID 0000.0001)     ;
(PID.TID 0000.0001) PTRACERS_advScheme = /* Advection Scheme */
(PID.TID 0000.0001)                      33
(PID.TID 0000.0001)     ;
(PID.TID 0000.0001) PTRACERS_ImplVertAdv = /* implicit vert. advection flag */
(PID.TID 0000.0001)                   F
(PID.TID 0000.0001)     ;
(PID.TID 0000.0001) PTRACERS_diffKh = /* Laplacian Diffusivity */
(PID.TID 0000.0001)                 0.000000000000000E+00
(PID.TID 0000.0001)     ;
(PID.TID 0000.0001) PTRACERS_diffK4 = /* Biharmonic Diffusivity */
(PID.TID 0000.0001)                 0.000000000000000E+00
(PID.TID 0000.0001)     ;
(PID.TID 0000.0001) PTRACERS_diffKrNr = /* Vertical Diffusivity */
(PID.TID 0000.0001)    24 @  1.000000000000000E-06              /* K =  1: 24 */
(PID.TID 0000.0001)     ;
(PID.TID 0000.0001) PTRACERS_useGMRedi = /* apply GM-Redi */
(PID.TID 0000.0001)                   F
(PID.TID 0000.0001)     ;
(PID.TID 0000.0001) PTRACERS_useDWNSLP = /* apply DOWN-SLOPE Flow */
(PID.TID 0000.0001)                   F
(PID.TID 0000.0001)     ;
(PID.TID 0000.0001) PTRACERS_useKPP = /* apply KPP scheme */
(PID.TID 0000.0001)                   T
(PID.TID 0000.0001)     ;
(PID.TID 0000.0001) PTRACERS_ref = /* Reference vertical profile */
(PID.TID 0000.0001)    24 @  0.000000000000000E+00              /* K =  1: 24 */
(PID.TID 0000.0001)     ;
(PID.TID 0000.0001) PTRACERS_EvPrRn =/* tracer conc. in Evap. & Rain */
(PID.TID 0000.0001)                 1.234567000000000E+05
(PID.TID 0000.0001)     ;
(PID.TID 0000.0001)  -----------------------------------
(PID.TID 0000.0001)  tracer number :   41
(PID.TID 0000.0001) PTRACERS_ioLabel = /* tracer IO Label */
(PID.TID 0000.0001)               '41'
(PID.TID 0000.0001)     ;
(PID.TID 0000.0001) PTRACERS_advScheme = /* Advection Scheme */
(PID.TID 0000.0001)                      33
(PID.TID 0000.0001)     ;
(PID.TID 0000.0001) PTRACERS_ImplVertAdv = /* implicit vert. advection flag */
(PID.TID 0000.0001)                   F
(PID.TID 0000.0001)     ;
(PID.TID 0000.0001) PTRACERS_diffKh = /* Laplacian Diffusivity */
(PID.TID 0000.0001)                 0.000000000000000E+00
(PID.TID 0000.0001)     ;
(PID.TID 0000.0001) PTRACERS_diffK4 = /* Biharmonic Diffusivity */
(PID.TID 0000.0001)                 0.000000000000000E+00
(PID.TID 0000.0001)     ;
(PID.TID 0000.0001) PTRACERS_diffKrNr = /* Vertical Diffusivity */
(PID.TID 0000.0001)    24 @  1.000000000000000E-06              /* K =  1: 24 */
(PID.TID 0000.0001)     ;
(PID.TID 0000.0001) PTRACERS_useGMRedi = /* apply GM-Redi */
(PID.TID 0000.0001)                   F
(PID.TID 0000.0001)     ;
(PID.TID 0000.0001) PTRACERS_useDWNSLP = /* apply DOWN-SLOPE Flow */
(PID.TID 0000.0001)                   F
(PID.TID 0000.0001)     ;
(PID.TID 0000.0001) PTRACERS_useKPP = /* apply KPP scheme */
(PID.TID 0000.0001)                   T
(PID.TID 0000.0001)     ;
(PID.TID 0000.0001) PTRACERS_ref = /* Reference vertical profile */
(PID.TID 0000.0001)    24 @  0.000000000000000E+00              /* K =  1: 24 */
(PID.TID 0000.0001)     ;
(PID.TID 0000.0001) PTRACERS_EvPrRn =/* tracer conc. in Evap. & Rain */
(PID.TID 0000.0001)                 1.234567000000000E+05
(PID.TID 0000.0001)     ;
(PID.TID 0000.0001)  -----------------------------------
(PID.TID 0000.0001)  tracer number :   42
(PID.TID 0000.0001) PTRACERS_ioLabel = /* tracer IO Label */
(PID.TID 0000.0001)               '42'
(PID.TID 0000.0001)     ;
(PID.TID 0000.0001) PTRACERS_advScheme = /* Advection Scheme */
(PID.TID 0000.0001)                      33
(PID.TID 0000.0001)     ;
(PID.TID 0000.0001) PTRACERS_ImplVertAdv = /* implicit vert. advection flag */
(PID.TID 0000.0001)                   F
(PID.TID 0000.0001)     ;
(PID.TID 0000.0001) PTRACERS_diffKh = /* Laplacian Diffusivity */
(PID.TID 0000.0001)                 0.000000000000000E+00
(PID.TID 0000.0001)     ;
(PID.TID 0000.0001) PTRACERS_diffK4 = /* Biharmonic Diffusivity */
(PID.TID 0000.0001)                 0.000000000000000E+00
(PID.TID 0000.0001)     ;
(PID.TID 0000.0001) PTRACERS_diffKrNr = /* Vertical Diffusivity */
(PID.TID 0000.0001)    24 @  1.000000000000000E-06              /* K =  1: 24 */
(PID.TID 0000.0001)     ;
(PID.TID 0000.0001) PTRACERS_useGMRedi = /* apply GM-Redi */
(PID.TID 0000.0001)                   F
(PID.TID 0000.0001)     ;
(PID.TID 0000.0001) PTRACERS_useDWNSLP = /* apply DOWN-SLOPE Flow */
(PID.TID 0000.0001)                   F
(PID.TID 0000.0001)     ;
(PID.TID 0000.0001) PTRACERS_useKPP = /* apply KPP scheme */
(PID.TID 0000.0001)                   T
(PID.TID 0000.0001)     ;
(PID.TID 0000.0001) PTRACERS_ref = /* Reference vertical profile */
(PID.TID 0000.0001)    24 @  0.000000000000000E+00              /* K =  1: 24 */
(PID.TID 0000.0001)     ;
(PID.TID 0000.0001) PTRACERS_EvPrRn =/* tracer conc. in Evap. & Rain */
(PID.TID 0000.0001)                 1.234567000000000E+05
(PID.TID 0000.0001)     ;
(PID.TID 0000.0001)  -----------------------------------
(PID.TID 0000.0001)  tracer number :   43
(PID.TID 0000.0001) PTRACERS_ioLabel = /* tracer IO Label */
(PID.TID 0000.0001)               '43'
(PID.TID 0000.0001)     ;
(PID.TID 0000.0001) PTRACERS_advScheme = /* Advection Scheme */
(PID.TID 0000.0001)                      33
(PID.TID 0000.0001)     ;
(PID.TID 0000.0001) PTRACERS_ImplVertAdv = /* implicit vert. advection flag */
(PID.TID 0000.0001)                   F
(PID.TID 0000.0001)     ;
(PID.TID 0000.0001) PTRACERS_diffKh = /* Laplacian Diffusivity */
(PID.TID 0000.0001)                 0.000000000000000E+00
(PID.TID 0000.0001)     ;
(PID.TID 0000.0001) PTRACERS_diffK4 = /* Biharmonic Diffusivity */
(PID.TID 0000.0001)                 0.000000000000000E+00
(PID.TID 0000.0001)     ;
(PID.TID 0000.0001) PTRACERS_diffKrNr = /* Vertical Diffusivity */
(PID.TID 0000.0001)    24 @  1.000000000000000E-06              /* K =  1: 24 */
(PID.TID 0000.0001)     ;
(PID.TID 0000.0001) PTRACERS_useGMRedi = /* apply GM-Redi */
(PID.TID 0000.0001)                   F
(PID.TID 0000.0001)     ;
(PID.TID 0000.0001) PTRACERS_useDWNSLP = /* apply DOWN-SLOPE Flow */
(PID.TID 0000.0001)                   F
(PID.TID 0000.0001)     ;
(PID.TID 0000.0001) PTRACERS_useKPP = /* apply KPP scheme */
(PID.TID 0000.0001)                   T
(PID.TID 0000.0001)     ;
(PID.TID 0000.0001) PTRACERS_ref = /* Reference vertical profile */
(PID.TID 0000.0001)    24 @  0.000000000000000E+00              /* K =  1: 24 */
(PID.TID 0000.0001)     ;
(PID.TID 0000.0001) PTRACERS_EvPrRn =/* tracer conc. in Evap. & Rain */
(PID.TID 0000.0001)                 1.234567000000000E+05
(PID.TID 0000.0001)     ;
(PID.TID 0000.0001)  -----------------------------------
(PID.TID 0000.0001)  tracer number :   44
(PID.TID 0000.0001) PTRACERS_ioLabel = /* tracer IO Label */
(PID.TID 0000.0001)               '44'
(PID.TID 0000.0001)     ;
(PID.TID 0000.0001) PTRACERS_advScheme = /* Advection Scheme */
(PID.TID 0000.0001)                      33
(PID.TID 0000.0001)     ;
(PID.TID 0000.0001) PTRACERS_ImplVertAdv = /* implicit vert. advection flag */
(PID.TID 0000.0001)                   F
(PID.TID 0000.0001)     ;
(PID.TID 0000.0001) PTRACERS_diffKh = /* Laplacian Diffusivity */
(PID.TID 0000.0001)                 0.000000000000000E+00
(PID.TID 0000.0001)     ;
(PID.TID 0000.0001) PTRACERS_diffK4 = /* Biharmonic Diffusivity */
(PID.TID 0000.0001)                 0.000000000000000E+00
(PID.TID 0000.0001)     ;
(PID.TID 0000.0001) PTRACERS_diffKrNr = /* Vertical Diffusivity */
(PID.TID 0000.0001)    24 @  1.000000000000000E-06              /* K =  1: 24 */
(PID.TID 0000.0001)     ;
(PID.TID 0000.0001) PTRACERS_useGMRedi = /* apply GM-Redi */
(PID.TID 0000.0001)                   F
(PID.TID 0000.0001)     ;
(PID.TID 0000.0001) PTRACERS_useDWNSLP = /* apply DOWN-SLOPE Flow */
(PID.TID 0000.0001)                   F
(PID.TID 0000.0001)     ;
(PID.TID 0000.0001) PTRACERS_useKPP = /* apply KPP scheme */
(PID.TID 0000.0001)                   T
(PID.TID 0000.0001)     ;
(PID.TID 0000.0001) PTRACERS_ref = /* Reference vertical profile */
(PID.TID 0000.0001)    24 @  0.000000000000000E+00              /* K =  1: 24 */
(PID.TID 0000.0001)     ;
(PID.TID 0000.0001) PTRACERS_EvPrRn =/* tracer conc. in Evap. & Rain */
(PID.TID 0000.0001)                 1.234567000000000E+05
(PID.TID 0000.0001)     ;
(PID.TID 0000.0001)  -----------------------------------
(PID.TID 0000.0001)  tracer number :   45
(PID.TID 0000.0001) PTRACERS_ioLabel = /* tracer IO Label */
(PID.TID 0000.0001)               '45'
(PID.TID 0000.0001)     ;
(PID.TID 0000.0001) PTRACERS_advScheme = /* Advection Scheme */
(PID.TID 0000.0001)                      33
(PID.TID 0000.0001)     ;
(PID.TID 0000.0001) PTRACERS_ImplVertAdv = /* implicit vert. advection flag */
(PID.TID 0000.0001)                   F
(PID.TID 0000.0001)     ;
(PID.TID 0000.0001) PTRACERS_diffKh = /* Laplacian Diffusivity */
(PID.TID 0000.0001)                 0.000000000000000E+00
(PID.TID 0000.0001)     ;
(PID.TID 0000.0001) PTRACERS_diffK4 = /* Biharmonic Diffusivity */
(PID.TID 0000.0001)                 0.000000000000000E+00
(PID.TID 0000.0001)     ;
(PID.TID 0000.0001) PTRACERS_diffKrNr = /* Vertical Diffusivity */
(PID.TID 0000.0001)    24 @  1.000000000000000E-06              /* K =  1: 24 */
(PID.TID 0000.0001)     ;
(PID.TID 0000.0001) PTRACERS_useGMRedi = /* apply GM-Redi */
(PID.TID 0000.0001)                   F
(PID.TID 0000.0001)     ;
(PID.TID 0000.0001) PTRACERS_useDWNSLP = /* apply DOWN-SLOPE Flow */
(PID.TID 0000.0001)                   F
(PID.TID 0000.0001)     ;
(PID.TID 0000.0001) PTRACERS_useKPP = /* apply KPP scheme */
(PID.TID 0000.0001)                   T
(PID.TID 0000.0001)     ;
(PID.TID 0000.0001) PTRACERS_ref = /* Reference vertical profile */
(PID.TID 0000.0001)    24 @  0.000000000000000E+00              /* K =  1: 24 */
(PID.TID 0000.0001)     ;
(PID.TID 0000.0001) PTRACERS_EvPrRn =/* tracer conc. in Evap. & Rain */
(PID.TID 0000.0001)                 1.234567000000000E+05
(PID.TID 0000.0001)     ;
(PID.TID 0000.0001)  -----------------------------------
(PID.TID 0000.0001)  tracer number :   46
(PID.TID 0000.0001) PTRACERS_ioLabel = /* tracer IO Label */
(PID.TID 0000.0001)               '46'
(PID.TID 0000.0001)     ;
(PID.TID 0000.0001) PTRACERS_advScheme = /* Advection Scheme */
(PID.TID 0000.0001)                      33
(PID.TID 0000.0001)     ;
(PID.TID 0000.0001) PTRACERS_ImplVertAdv = /* implicit vert. advection flag */
(PID.TID 0000.0001)                   F
(PID.TID 0000.0001)     ;
(PID.TID 0000.0001) PTRACERS_diffKh = /* Laplacian Diffusivity */
(PID.TID 0000.0001)                 0.000000000000000E+00
(PID.TID 0000.0001)     ;
(PID.TID 0000.0001) PTRACERS_diffK4 = /* Biharmonic Diffusivity */
(PID.TID 0000.0001)                 0.000000000000000E+00
(PID.TID 0000.0001)     ;
(PID.TID 0000.0001) PTRACERS_diffKrNr = /* Vertical Diffusivity */
(PID.TID 0000.0001)    24 @  1.000000000000000E-06              /* K =  1: 24 */
(PID.TID 0000.0001)     ;
(PID.TID 0000.0001) PTRACERS_useGMRedi = /* apply GM-Redi */
(PID.TID 0000.0001)                   F
(PID.TID 0000.0001)     ;
(PID.TID 0000.0001) PTRACERS_useDWNSLP = /* apply DOWN-SLOPE Flow */
(PID.TID 0000.0001)                   F
(PID.TID 0000.0001)     ;
(PID.TID 0000.0001) PTRACERS_useKPP = /* apply KPP scheme */
(PID.TID 0000.0001)                   T
(PID.TID 0000.0001)     ;
(PID.TID 0000.0001) PTRACERS_ref = /* Reference vertical profile */
(PID.TID 0000.0001)    24 @  0.000000000000000E+00              /* K =  1: 24 */
(PID.TID 0000.0001)     ;
(PID.TID 0000.0001) PTRACERS_EvPrRn =/* tracer conc. in Evap. & Rain */
(PID.TID 0000.0001)                 1.234567000000000E+05
(PID.TID 0000.0001)     ;
(PID.TID 0000.0001)  -----------------------------------
(PID.TID 0000.0001)  tracer number :   47
(PID.TID 0000.0001) PTRACERS_ioLabel = /* tracer IO Label */
(PID.TID 0000.0001)               '47'
(PID.TID 0000.0001)     ;
(PID.TID 0000.0001) PTRACERS_advScheme = /* Advection Scheme */
(PID.TID 0000.0001)                      33
(PID.TID 0000.0001)     ;
(PID.TID 0000.0001) PTRACERS_ImplVertAdv = /* implicit vert. advection flag */
(PID.TID 0000.0001)                   F
(PID.TID 0000.0001)     ;
(PID.TID 0000.0001) PTRACERS_diffKh = /* Laplacian Diffusivity */
(PID.TID 0000.0001)                 0.000000000000000E+00
(PID.TID 0000.0001)     ;
(PID.TID 0000.0001) PTRACERS_diffK4 = /* Biharmonic Diffusivity */
(PID.TID 0000.0001)                 0.000000000000000E+00
(PID.TID 0000.0001)     ;
(PID.TID 0000.0001) PTRACERS_diffKrNr = /* Vertical Diffusivity */
(PID.TID 0000.0001)    24 @  1.000000000000000E-06              /* K =  1: 24 */
(PID.TID 0000.0001)     ;
(PID.TID 0000.0001) PTRACERS_useGMRedi = /* apply GM-Redi */
(PID.TID 0000.0001)                   F
(PID.TID 0000.0001)     ;
(PID.TID 0000.0001) PTRACERS_useDWNSLP = /* apply DOWN-SLOPE Flow */
(PID.TID 0000.0001)                   F
(PID.TID 0000.0001)     ;
(PID.TID 0000.0001) PTRACERS_useKPP = /* apply KPP scheme */
(PID.TID 0000.0001)                   T
(PID.TID 0000.0001)     ;
(PID.TID 0000.0001) PTRACERS_ref = /* Reference vertical profile */
(PID.TID 0000.0001)    24 @  0.000000000000000E+00              /* K =  1: 24 */
(PID.TID 0000.0001)     ;
(PID.TID 0000.0001) PTRACERS_EvPrRn =/* tracer conc. in Evap. & Rain */
(PID.TID 0000.0001)                 1.234567000000000E+05
(PID.TID 0000.0001)     ;
(PID.TID 0000.0001)  -----------------------------------
(PID.TID 0000.0001)  tracer number :   48
(PID.TID 0000.0001) PTRACERS_ioLabel = /* tracer IO Label */
(PID.TID 0000.0001)               '48'
(PID.TID 0000.0001)     ;
(PID.TID 0000.0001) PTRACERS_advScheme = /* Advection Scheme */
(PID.TID 0000.0001)                      33
(PID.TID 0000.0001)     ;
(PID.TID 0000.0001) PTRACERS_ImplVertAdv = /* implicit vert. advection flag */
(PID.TID 0000.0001)                   F
(PID.TID 0000.0001)     ;
(PID.TID 0000.0001) PTRACERS_diffKh = /* Laplacian Diffusivity */
(PID.TID 0000.0001)                 0.000000000000000E+00
(PID.TID 0000.0001)     ;
(PID.TID 0000.0001) PTRACERS_diffK4 = /* Biharmonic Diffusivity */
(PID.TID 0000.0001)                 0.000000000000000E+00
(PID.TID 0000.0001)     ;
(PID.TID 0000.0001) PTRACERS_diffKrNr = /* Vertical Diffusivity */
(PID.TID 0000.0001)    24 @  1.000000000000000E-06              /* K =  1: 24 */
(PID.TID 0000.0001)     ;
(PID.TID 0000.0001) PTRACERS_useGMRedi = /* apply GM-Redi */
(PID.TID 0000.0001)                   F
(PID.TID 0000.0001)     ;
(PID.TID 0000.0001) PTRACERS_useDWNSLP = /* apply DOWN-SLOPE Flow */
(PID.TID 0000.0001)                   F
(PID.TID 0000.0001)     ;
(PID.TID 0000.0001) PTRACERS_useKPP = /* apply KPP scheme */
(PID.TID 0000.0001)                   T
(PID.TID 0000.0001)     ;
(PID.TID 0000.0001) PTRACERS_ref = /* Reference vertical profile */
(PID.TID 0000.0001)    24 @  0.000000000000000E+00              /* K =  1: 24 */
(PID.TID 0000.0001)     ;
(PID.TID 0000.0001) PTRACERS_EvPrRn =/* tracer conc. in Evap. & Rain */
(PID.TID 0000.0001)                 1.234567000000000E+05
(PID.TID 0000.0001)     ;
(PID.TID 0000.0001)  -----------------------------------
(PID.TID 0000.0001)  tracer number :   49
(PID.TID 0000.0001) PTRACERS_ioLabel = /* tracer IO Label */
(PID.TID 0000.0001)               '49'
(PID.TID 0000.0001)     ;
(PID.TID 0000.0001) PTRACERS_advScheme = /* Advection Scheme */
(PID.TID 0000.0001)                      33
(PID.TID 0000.0001)     ;
(PID.TID 0000.0001) PTRACERS_ImplVertAdv = /* implicit vert. advection flag */
(PID.TID 0000.0001)                   F
(PID.TID 0000.0001)     ;
(PID.TID 0000.0001) PTRACERS_diffKh = /* Laplacian Diffusivity */
(PID.TID 0000.0001)                 0.000000000000000E+00
(PID.TID 0000.0001)     ;
(PID.TID 0000.0001) PTRACERS_diffK4 = /* Biharmonic Diffusivity */
(PID.TID 0000.0001)                 0.000000000000000E+00
(PID.TID 0000.0001)     ;
(PID.TID 0000.0001) PTRACERS_diffKrNr = /* Vertical Diffusivity */
(PID.TID 0000.0001)    24 @  1.000000000000000E-06              /* K =  1: 24 */
(PID.TID 0000.0001)     ;
(PID.TID 0000.0001) PTRACERS_useGMRedi = /* apply GM-Redi */
(PID.TID 0000.0001)                   F
(PID.TID 0000.0001)     ;
(PID.TID 0000.0001) PTRACERS_useDWNSLP = /* apply DOWN-SLOPE Flow */
(PID.TID 0000.0001)                   F
(PID.TID 0000.0001)     ;
(PID.TID 0000.0001) PTRACERS_useKPP = /* apply KPP scheme */
(PID.TID 0000.0001)                   T
(PID.TID 0000.0001)     ;
(PID.TID 0000.0001) PTRACERS_ref = /* Reference vertical profile */
(PID.TID 0000.0001)    24 @  0.000000000000000E+00              /* K =  1: 24 */
(PID.TID 0000.0001)     ;
(PID.TID 0000.0001) PTRACERS_EvPrRn =/* tracer conc. in Evap. & Rain */
(PID.TID 0000.0001)                 1.234567000000000E+05
(PID.TID 0000.0001)     ;
(PID.TID 0000.0001)  -----------------------------------
(PID.TID 0000.0001)  tracer number :   50
(PID.TID 0000.0001) PTRACERS_ioLabel = /* tracer IO Label */
(PID.TID 0000.0001)               '50'
(PID.TID 0000.0001)     ;
(PID.TID 0000.0001) PTRACERS_advScheme = /* Advection Scheme */
(PID.TID 0000.0001)                      33
(PID.TID 0000.0001)     ;
(PID.TID 0000.0001) PTRACERS_ImplVertAdv = /* implicit vert. advection flag */
(PID.TID 0000.0001)                   F
(PID.TID 0000.0001)     ;
(PID.TID 0000.0001) PTRACERS_diffKh = /* Laplacian Diffusivity */
(PID.TID 0000.0001)                 0.000000000000000E+00
(PID.TID 0000.0001)     ;
(PID.TID 0000.0001) PTRACERS_diffK4 = /* Biharmonic Diffusivity */
(PID.TID 0000.0001)                 0.000000000000000E+00
(PID.TID 0000.0001)     ;
(PID.TID 0000.0001) PTRACERS_diffKrNr = /* Vertical Diffusivity */
(PID.TID 0000.0001)    24 @  1.000000000000000E-06              /* K =  1: 24 */
(PID.TID 0000.0001)     ;
(PID.TID 0000.0001) PTRACERS_useGMRedi = /* apply GM-Redi */
(PID.TID 0000.0001)                   F
(PID.TID 0000.0001)     ;
(PID.TID 0000.0001) PTRACERS_useDWNSLP = /* apply DOWN-SLOPE Flow */
(PID.TID 0000.0001)                   F
(PID.TID 0000.0001)     ;
(PID.TID 0000.0001) PTRACERS_useKPP = /* apply KPP scheme */
(PID.TID 0000.0001)                   T
(PID.TID 0000.0001)     ;
(PID.TID 0000.0001) PTRACERS_ref = /* Reference vertical profile */
(PID.TID 0000.0001)    24 @  0.000000000000000E+00              /* K =  1: 24 */
(PID.TID 0000.0001)     ;
(PID.TID 0000.0001) PTRACERS_EvPrRn =/* tracer conc. in Evap. & Rain */
(PID.TID 0000.0001)                 1.234567000000000E+05
(PID.TID 0000.0001)     ;
(PID.TID 0000.0001)  -----------------------------------
(PID.TID 0000.0001)  tracer number :   51
(PID.TID 0000.0001) PTRACERS_ioLabel = /* tracer IO Label */
(PID.TID 0000.0001)               '51'
(PID.TID 0000.0001)     ;
(PID.TID 0000.0001) PTRACERS_advScheme = /* Advection Scheme */
(PID.TID 0000.0001)                      33
(PID.TID 0000.0001)     ;
(PID.TID 0000.0001) PTRACERS_ImplVertAdv = /* implicit vert. advection flag */
(PID.TID 0000.0001)                   F
(PID.TID 0000.0001)     ;
(PID.TID 0000.0001) PTRACERS_diffKh = /* Laplacian Diffusivity */
(PID.TID 0000.0001)                 0.000000000000000E+00
(PID.TID 0000.0001)     ;
(PID.TID 0000.0001) PTRACERS_diffK4 = /* Biharmonic Diffusivity */
(PID.TID 0000.0001)                 0.000000000000000E+00
(PID.TID 0000.0001)     ;
(PID.TID 0000.0001) PTRACERS_diffKrNr = /* Vertical Diffusivity */
(PID.TID 0000.0001)    24 @  1.000000000000000E-06              /* K =  1: 24 */
(PID.TID 0000.0001)     ;
(PID.TID 0000.0001) PTRACERS_useGMRedi = /* apply GM-Redi */
(PID.TID 0000.0001)                   F
(PID.TID 0000.0001)     ;
(PID.TID 0000.0001) PTRACERS_useDWNSLP = /* apply DOWN-SLOPE Flow */
(PID.TID 0000.0001)                   F
(PID.TID 0000.0001)     ;
(PID.TID 0000.0001) PTRACERS_useKPP = /* apply KPP scheme */
(PID.TID 0000.0001)                   T
(PID.TID 0000.0001)     ;
(PID.TID 0000.0001) PTRACERS_ref = /* Reference vertical profile */
(PID.TID 0000.0001)    24 @  0.000000000000000E+00              /* K =  1: 24 */
(PID.TID 0000.0001)     ;
(PID.TID 0000.0001) PTRACERS_EvPrRn =/* tracer conc. in Evap. & Rain */
(PID.TID 0000.0001)                 1.234567000000000E+05
(PID.TID 0000.0001)     ;
(PID.TID 0000.0001)  -----------------------------------
(PID.TID 0000.0001)  tracer number :   52
(PID.TID 0000.0001) PTRACERS_ioLabel = /* tracer IO Label */
(PID.TID 0000.0001)               '52'
(PID.TID 0000.0001)     ;
(PID.TID 0000.0001) PTRACERS_advScheme = /* Advection Scheme */
(PID.TID 0000.0001)                      33
(PID.TID 0000.0001)     ;
(PID.TID 0000.0001) PTRACERS_ImplVertAdv = /* implicit vert. advection flag */
(PID.TID 0000.0001)                   F
(PID.TID 0000.0001)     ;
(PID.TID 0000.0001) PTRACERS_diffKh = /* Laplacian Diffusivity */
(PID.TID 0000.0001)                 0.000000000000000E+00
(PID.TID 0000.0001)     ;
(PID.TID 0000.0001) PTRACERS_diffK4 = /* Biharmonic Diffusivity */
(PID.TID 0000.0001)                 0.000000000000000E+00
(PID.TID 0000.0001)     ;
(PID.TID 0000.0001) PTRACERS_diffKrNr = /* Vertical Diffusivity */
(PID.TID 0000.0001)    24 @  1.000000000000000E-06              /* K =  1: 24 */
(PID.TID 0000.0001)     ;
(PID.TID 0000.0001) PTRACERS_useGMRedi = /* apply GM-Redi */
(PID.TID 0000.0001)                   F
(PID.TID 0000.0001)     ;
(PID.TID 0000.0001) PTRACERS_useDWNSLP = /* apply DOWN-SLOPE Flow */
(PID.TID 0000.0001)                   F
(PID.TID 0000.0001)     ;
(PID.TID 0000.0001) PTRACERS_useKPP = /* apply KPP scheme */
(PID.TID 0000.0001)                   T
(PID.TID 0000.0001)     ;
(PID.TID 0000.0001) PTRACERS_ref = /* Reference vertical profile */
(PID.TID 0000.0001)    24 @  0.000000000000000E+00              /* K =  1: 24 */
(PID.TID 0000.0001)     ;
(PID.TID 0000.0001) PTRACERS_EvPrRn =/* tracer conc. in Evap. & Rain */
(PID.TID 0000.0001)                 1.234567000000000E+05
(PID.TID 0000.0001)     ;
(PID.TID 0000.0001)  -----------------------------------
(PID.TID 0000.0001)  tracer number :   53
(PID.TID 0000.0001) PTRACERS_ioLabel = /* tracer IO Label */
(PID.TID 0000.0001)               '53'
(PID.TID 0000.0001)     ;
(PID.TID 0000.0001) PTRACERS_advScheme = /* Advection Scheme */
(PID.TID 0000.0001)                      33
(PID.TID 0000.0001)     ;
(PID.TID 0000.0001) PTRACERS_ImplVertAdv = /* implicit vert. advection flag */
(PID.TID 0000.0001)                   F
(PID.TID 0000.0001)     ;
(PID.TID 0000.0001) PTRACERS_diffKh = /* Laplacian Diffusivity */
(PID.TID 0000.0001)                 0.000000000000000E+00
(PID.TID 0000.0001)     ;
(PID.TID 0000.0001) PTRACERS_diffK4 = /* Biharmonic Diffusivity */
(PID.TID 0000.0001)                 0.000000000000000E+00
(PID.TID 0000.0001)     ;
(PID.TID 0000.0001) PTRACERS_diffKrNr = /* Vertical Diffusivity */
(PID.TID 0000.0001)    24 @  1.000000000000000E-06              /* K =  1: 24 */
(PID.TID 0000.0001)     ;
(PID.TID 0000.0001) PTRACERS_useGMRedi = /* apply GM-Redi */
(PID.TID 0000.0001)                   F
(PID.TID 0000.0001)     ;
(PID.TID 0000.0001) PTRACERS_useDWNSLP = /* apply DOWN-SLOPE Flow */
(PID.TID 0000.0001)                   F
(PID.TID 0000.0001)     ;
(PID.TID 0000.0001) PTRACERS_useKPP = /* apply KPP scheme */
(PID.TID 0000.0001)                   T
(PID.TID 0000.0001)     ;
(PID.TID 0000.0001) PTRACERS_ref = /* Reference vertical profile */
(PID.TID 0000.0001)    24 @  0.000000000000000E+00              /* K =  1: 24 */
(PID.TID 0000.0001)     ;
(PID.TID 0000.0001) PTRACERS_EvPrRn =/* tracer conc. in Evap. & Rain */
(PID.TID 0000.0001)                 1.234567000000000E+05
(PID.TID 0000.0001)     ;
(PID.TID 0000.0001)  -----------------------------------
(PID.TID 0000.0001)  tracer number :   54
(PID.TID 0000.0001) PTRACERS_ioLabel = /* tracer IO Label */
(PID.TID 0000.0001)               '54'
(PID.TID 0000.0001)     ;
(PID.TID 0000.0001) PTRACERS_advScheme = /* Advection Scheme */
(PID.TID 0000.0001)                      33
(PID.TID 0000.0001)     ;
(PID.TID 0000.0001) PTRACERS_ImplVertAdv = /* implicit vert. advection flag */
(PID.TID 0000.0001)                   F
(PID.TID 0000.0001)     ;
(PID.TID 0000.0001) PTRACERS_diffKh = /* Laplacian Diffusivity */
(PID.TID 0000.0001)                 0.000000000000000E+00
(PID.TID 0000.0001)     ;
(PID.TID 0000.0001) PTRACERS_diffK4 = /* Biharmonic Diffusivity */
(PID.TID 0000.0001)                 0.000000000000000E+00
(PID.TID 0000.0001)     ;
(PID.TID 0000.0001) PTRACERS_diffKrNr = /* Vertical Diffusivity */
(PID.TID 0000.0001)    24 @  1.000000000000000E-06              /* K =  1: 24 */
(PID.TID 0000.0001)     ;
(PID.TID 0000.0001) PTRACERS_useGMRedi = /* apply GM-Redi */
(PID.TID 0000.0001)                   F
(PID.TID 0000.0001)     ;
(PID.TID 0000.0001) PTRACERS_useDWNSLP = /* apply DOWN-SLOPE Flow */
(PID.TID 0000.0001)                   F
(PID.TID 0000.0001)     ;
(PID.TID 0000.0001) PTRACERS_useKPP = /* apply KPP scheme */
(PID.TID 0000.0001)                   T
(PID.TID 0000.0001)     ;
(PID.TID 0000.0001) PTRACERS_ref = /* Reference vertical profile */
(PID.TID 0000.0001)    24 @  0.000000000000000E+00              /* K =  1: 24 */
(PID.TID 0000.0001)     ;
(PID.TID 0000.0001) PTRACERS_EvPrRn =/* tracer conc. in Evap. & Rain */
(PID.TID 0000.0001)                 1.234567000000000E+05
(PID.TID 0000.0001)     ;
(PID.TID 0000.0001)  -----------------------------------
(PID.TID 0000.0001)  tracer number :   55
(PID.TID 0000.0001) PTRACERS_ioLabel = /* tracer IO Label */
(PID.TID 0000.0001)               '55'
(PID.TID 0000.0001)     ;
(PID.TID 0000.0001) PTRACERS_advScheme = /* Advection Scheme */
(PID.TID 0000.0001)                      33
(PID.TID 0000.0001)     ;
(PID.TID 0000.0001) PTRACERS_ImplVertAdv = /* implicit vert. advection flag */
(PID.TID 0000.0001)                   F
(PID.TID 0000.0001)     ;
(PID.TID 0000.0001) PTRACERS_diffKh = /* Laplacian Diffusivity */
(PID.TID 0000.0001)                 0.000000000000000E+00
(PID.TID 0000.0001)     ;
(PID.TID 0000.0001) PTRACERS_diffK4 = /* Biharmonic Diffusivity */
(PID.TID 0000.0001)                 0.000000000000000E+00
(PID.TID 0000.0001)     ;
(PID.TID 0000.0001) PTRACERS_diffKrNr = /* Vertical Diffusivity */
(PID.TID 0000.0001)    24 @  1.000000000000000E-06              /* K =  1: 24 */
(PID.TID 0000.0001)     ;
(PID.TID 0000.0001) PTRACERS_useGMRedi = /* apply GM-Redi */
(PID.TID 0000.0001)                   F
(PID.TID 0000.0001)     ;
(PID.TID 0000.0001) PTRACERS_useDWNSLP = /* apply DOWN-SLOPE Flow */
(PID.TID 0000.0001)                   F
(PID.TID 0000.0001)     ;
(PID.TID 0000.0001) PTRACERS_useKPP = /* apply KPP scheme */
(PID.TID 0000.0001)                   T
(PID.TID 0000.0001)     ;
(PID.TID 0000.0001) PTRACERS_ref = /* Reference vertical profile */
(PID.TID 0000.0001)    24 @  0.000000000000000E+00              /* K =  1: 24 */
(PID.TID 0000.0001)     ;
(PID.TID 0000.0001) PTRACERS_EvPrRn =/* tracer conc. in Evap. & Rain */
(PID.TID 0000.0001)                 1.234567000000000E+05
(PID.TID 0000.0001)     ;
(PID.TID 0000.0001)  -----------------------------------
(PID.TID 0000.0001)  tracer number :   56
(PID.TID 0000.0001) PTRACERS_ioLabel = /* tracer IO Label */
(PID.TID 0000.0001)               '56'
(PID.TID 0000.0001)     ;
(PID.TID 0000.0001) PTRACERS_advScheme = /* Advection Scheme */
(PID.TID 0000.0001)                      33
(PID.TID 0000.0001)     ;
(PID.TID 0000.0001) PTRACERS_ImplVertAdv = /* implicit vert. advection flag */
(PID.TID 0000.0001)                   F
(PID.TID 0000.0001)     ;
(PID.TID 0000.0001) PTRACERS_diffKh = /* Laplacian Diffusivity */
(PID.TID 0000.0001)                 0.000000000000000E+00
(PID.TID 0000.0001)     ;
(PID.TID 0000.0001) PTRACERS_diffK4 = /* Biharmonic Diffusivity */
(PID.TID 0000.0001)                 0.000000000000000E+00
(PID.TID 0000.0001)     ;
(PID.TID 0000.0001) PTRACERS_diffKrNr = /* Vertical Diffusivity */
(PID.TID 0000.0001)    24 @  1.000000000000000E-06              /* K =  1: 24 */
(PID.TID 0000.0001)     ;
(PID.TID 0000.0001) PTRACERS_useGMRedi = /* apply GM-Redi */
(PID.TID 0000.0001)                   F
(PID.TID 0000.0001)     ;
(PID.TID 0000.0001) PTRACERS_useDWNSLP = /* apply DOWN-SLOPE Flow */
(PID.TID 0000.0001)                   F
(PID.TID 0000.0001)     ;
(PID.TID 0000.0001) PTRACERS_useKPP = /* apply KPP scheme */
(PID.TID 0000.0001)                   T
(PID.TID 0000.0001)     ;
(PID.TID 0000.0001) PTRACERS_ref = /* Reference vertical profile */
(PID.TID 0000.0001)    24 @  0.000000000000000E+00              /* K =  1: 24 */
(PID.TID 0000.0001)     ;
(PID.TID 0000.0001) PTRACERS_EvPrRn =/* tracer conc. in Evap. & Rain */
(PID.TID 0000.0001)                 1.234567000000000E+05
(PID.TID 0000.0001)     ;
(PID.TID 0000.0001)  -----------------------------------
(PID.TID 0000.0001)  tracer number :   57
(PID.TID 0000.0001) PTRACERS_ioLabel = /* tracer IO Label */
(PID.TID 0000.0001)               '57'
(PID.TID 0000.0001)     ;
(PID.TID 0000.0001) PTRACERS_advScheme = /* Advection Scheme */
(PID.TID 0000.0001)                      33
(PID.TID 0000.0001)     ;
(PID.TID 0000.0001) PTRACERS_ImplVertAdv = /* implicit vert. advection flag */
(PID.TID 0000.0001)                   F
(PID.TID 0000.0001)     ;
(PID.TID 0000.0001) PTRACERS_diffKh = /* Laplacian Diffusivity */
(PID.TID 0000.0001)                 0.000000000000000E+00
(PID.TID 0000.0001)     ;
(PID.TID 0000.0001) PTRACERS_diffK4 = /* Biharmonic Diffusivity */
(PID.TID 0000.0001)                 0.000000000000000E+00
(PID.TID 0000.0001)     ;
(PID.TID 0000.0001) PTRACERS_diffKrNr = /* Vertical Diffusivity */
(PID.TID 0000.0001)    24 @  1.000000000000000E-06              /* K =  1: 24 */
(PID.TID 0000.0001)     ;
(PID.TID 0000.0001) PTRACERS_useGMRedi = /* apply GM-Redi */
(PID.TID 0000.0001)                   F
(PID.TID 0000.0001)     ;
(PID.TID 0000.0001) PTRACERS_useDWNSLP = /* apply DOWN-SLOPE Flow */
(PID.TID 0000.0001)                   F
(PID.TID 0000.0001)     ;
(PID.TID 0000.0001) PTRACERS_useKPP = /* apply KPP scheme */
(PID.TID 0000.0001)                   T
(PID.TID 0000.0001)     ;
(PID.TID 0000.0001) PTRACERS_ref = /* Reference vertical profile */
(PID.TID 0000.0001)    24 @  0.000000000000000E+00              /* K =  1: 24 */
(PID.TID 0000.0001)     ;
(PID.TID 0000.0001) PTRACERS_EvPrRn =/* tracer conc. in Evap. & Rain */
(PID.TID 0000.0001)                 1.234567000000000E+05
(PID.TID 0000.0001)     ;
(PID.TID 0000.0001)  -----------------------------------
(PID.TID 0000.0001)  tracer number :   58
(PID.TID 0000.0001) PTRACERS_ioLabel = /* tracer IO Label */
(PID.TID 0000.0001)               '58'
(PID.TID 0000.0001)     ;
(PID.TID 0000.0001) PTRACERS_advScheme = /* Advection Scheme */
(PID.TID 0000.0001)                      33
(PID.TID 0000.0001)     ;
(PID.TID 0000.0001) PTRACERS_ImplVertAdv = /* implicit vert. advection flag */
(PID.TID 0000.0001)                   F
(PID.TID 0000.0001)     ;
(PID.TID 0000.0001) PTRACERS_diffKh = /* Laplacian Diffusivity */
(PID.TID 0000.0001)                 0.000000000000000E+00
(PID.TID 0000.0001)     ;
(PID.TID 0000.0001) PTRACERS_diffK4 = /* Biharmonic Diffusivity */
(PID.TID 0000.0001)                 0.000000000000000E+00
(PID.TID 0000.0001)     ;
(PID.TID 0000.0001) PTRACERS_diffKrNr = /* Vertical Diffusivity */
(PID.TID 0000.0001)    24 @  1.000000000000000E-06              /* K =  1: 24 */
(PID.TID 0000.0001)     ;
(PID.TID 0000.0001) PTRACERS_useGMRedi = /* apply GM-Redi */
(PID.TID 0000.0001)                   F
(PID.TID 0000.0001)     ;
(PID.TID 0000.0001) PTRACERS_useDWNSLP = /* apply DOWN-SLOPE Flow */
(PID.TID 0000.0001)                   F
(PID.TID 0000.0001)     ;
(PID.TID 0000.0001) PTRACERS_useKPP = /* apply KPP scheme */
(PID.TID 0000.0001)                   T
(PID.TID 0000.0001)     ;
(PID.TID 0000.0001) PTRACERS_ref = /* Reference vertical profile */
(PID.TID 0000.0001)    24 @  0.000000000000000E+00              /* K =  1: 24 */
(PID.TID 0000.0001)     ;
(PID.TID 0000.0001) PTRACERS_EvPrRn =/* tracer conc. in Evap. & Rain */
(PID.TID 0000.0001)                 1.234567000000000E+05
(PID.TID 0000.0001)     ;
(PID.TID 0000.0001)  -----------------------------------
(PID.TID 0000.0001)  tracer number :   59
(PID.TID 0000.0001) PTRACERS_ioLabel = /* tracer IO Label */
(PID.TID 0000.0001)               '59'
(PID.TID 0000.0001)     ;
(PID.TID 0000.0001) PTRACERS_advScheme = /* Advection Scheme */
(PID.TID 0000.0001)                      33
(PID.TID 0000.0001)     ;
(PID.TID 0000.0001) PTRACERS_ImplVertAdv = /* implicit vert. advection flag */
(PID.TID 0000.0001)                   F
(PID.TID 0000.0001)     ;
(PID.TID 0000.0001) PTRACERS_diffKh = /* Laplacian Diffusivity */
(PID.TID 0000.0001)                 0.000000000000000E+00
(PID.TID 0000.0001)     ;
(PID.TID 0000.0001) PTRACERS_diffK4 = /* Biharmonic Diffusivity */
(PID.TID 0000.0001)                 0.000000000000000E+00
(PID.TID 0000.0001)     ;
(PID.TID 0000.0001) PTRACERS_diffKrNr = /* Vertical Diffusivity */
(PID.TID 0000.0001)    24 @  1.000000000000000E-06              /* K =  1: 24 */
(PID.TID 0000.0001)     ;
(PID.TID 0000.0001) PTRACERS_useGMRedi = /* apply GM-Redi */
(PID.TID 0000.0001)                   F
(PID.TID 0000.0001)     ;
(PID.TID 0000.0001) PTRACERS_useDWNSLP = /* apply DOWN-SLOPE Flow */
(PID.TID 0000.0001)                   F
(PID.TID 0000.0001)     ;
(PID.TID 0000.0001) PTRACERS_useKPP = /* apply KPP scheme */
(PID.TID 0000.0001)                   T
(PID.TID 0000.0001)     ;
(PID.TID 0000.0001) PTRACERS_ref = /* Reference vertical profile */
(PID.TID 0000.0001)    24 @  0.000000000000000E+00              /* K =  1: 24 */
(PID.TID 0000.0001)     ;
(PID.TID 0000.0001) PTRACERS_EvPrRn =/* tracer conc. in Evap. & Rain */
(PID.TID 0000.0001)                 1.234567000000000E+05
(PID.TID 0000.0001)     ;
(PID.TID 0000.0001)  -----------------------------------
(PID.TID 0000.0001)  tracer number :   60
(PID.TID 0000.0001) PTRACERS_ioLabel = /* tracer IO Label */
(PID.TID 0000.0001)               '60'
(PID.TID 0000.0001)     ;
(PID.TID 0000.0001) PTRACERS_advScheme = /* Advection Scheme */
(PID.TID 0000.0001)                      33
(PID.TID 0000.0001)     ;
(PID.TID 0000.0001) PTRACERS_ImplVertAdv = /* implicit vert. advection flag */
(PID.TID 0000.0001)                   F
(PID.TID 0000.0001)     ;
(PID.TID 0000.0001) PTRACERS_diffKh = /* Laplacian Diffusivity */
(PID.TID 0000.0001)                 0.000000000000000E+00
(PID.TID 0000.0001)     ;
(PID.TID 0000.0001) PTRACERS_diffK4 = /* Biharmonic Diffusivity */
(PID.TID 0000.0001)                 0.000000000000000E+00
(PID.TID 0000.0001)     ;
(PID.TID 0000.0001) PTRACERS_diffKrNr = /* Vertical Diffusivity */
(PID.TID 0000.0001)    24 @  1.000000000000000E-06              /* K =  1: 24 */
(PID.TID 0000.0001)     ;
(PID.TID 0000.0001) PTRACERS_useGMRedi = /* apply GM-Redi */
(PID.TID 0000.0001)                   F
(PID.TID 0000.0001)     ;
(PID.TID 0000.0001) PTRACERS_useDWNSLP = /* apply DOWN-SLOPE Flow */
(PID.TID 0000.0001)                   F
(PID.TID 0000.0001)     ;
(PID.TID 0000.0001) PTRACERS_useKPP = /* apply KPP scheme */
(PID.TID 0000.0001)                   T
(PID.TID 0000.0001)     ;
(PID.TID 0000.0001) PTRACERS_ref = /* Reference vertical profile */
(PID.TID 0000.0001)    24 @  0.000000000000000E+00              /* K =  1: 24 */
(PID.TID 0000.0001)     ;
(PID.TID 0000.0001) PTRACERS_EvPrRn =/* tracer conc. in Evap. & Rain */
(PID.TID 0000.0001)                 1.234567000000000E+05
(PID.TID 0000.0001)     ;
(PID.TID 0000.0001)  -----------------------------------
(PID.TID 0000.0001)  tracer number :   61
(PID.TID 0000.0001) PTRACERS_ioLabel = /* tracer IO Label */
(PID.TID 0000.0001)               '61'
(PID.TID 0000.0001)     ;
(PID.TID 0000.0001) PTRACERS_advScheme = /* Advection Scheme */
(PID.TID 0000.0001)                      33
(PID.TID 0000.0001)     ;
(PID.TID 0000.0001) PTRACERS_ImplVertAdv = /* implicit vert. advection flag */
(PID.TID 0000.0001)                   F
(PID.TID 0000.0001)     ;
(PID.TID 0000.0001) PTRACERS_diffKh = /* Laplacian Diffusivity */
(PID.TID 0000.0001)                 0.000000000000000E+00
(PID.TID 0000.0001)     ;
(PID.TID 0000.0001) PTRACERS_diffK4 = /* Biharmonic Diffusivity */
(PID.TID 0000.0001)                 0.000000000000000E+00
(PID.TID 0000.0001)     ;
(PID.TID 0000.0001) PTRACERS_diffKrNr = /* Vertical Diffusivity */
(PID.TID 0000.0001)    24 @  1.000000000000000E-06              /* K =  1: 24 */
(PID.TID 0000.0001)     ;
(PID.TID 0000.0001) PTRACERS_useGMRedi = /* apply GM-Redi */
(PID.TID 0000.0001)                   F
(PID.TID 0000.0001)     ;
(PID.TID 0000.0001) PTRACERS_useDWNSLP = /* apply DOWN-SLOPE Flow */
(PID.TID 0000.0001)                   F
(PID.TID 0000.0001)     ;
(PID.TID 0000.0001) PTRACERS_useKPP = /* apply KPP scheme */
(PID.TID 0000.0001)                   T
(PID.TID 0000.0001)     ;
(PID.TID 0000.0001) PTRACERS_ref = /* Reference vertical profile */
(PID.TID 0000.0001)    24 @  0.000000000000000E+00              /* K =  1: 24 */
(PID.TID 0000.0001)     ;
(PID.TID 0000.0001) PTRACERS_EvPrRn =/* tracer conc. in Evap. & Rain */
(PID.TID 0000.0001)                 1.234567000000000E+05
(PID.TID 0000.0001)     ;
(PID.TID 0000.0001)  -----------------------------------
(PID.TID 0000.0001)  tracer number :   62
(PID.TID 0000.0001) PTRACERS_ioLabel = /* tracer IO Label */
(PID.TID 0000.0001)               '62'
(PID.TID 0000.0001)     ;
(PID.TID 0000.0001) PTRACERS_advScheme = /* Advection Scheme */
(PID.TID 0000.0001)                      33
(PID.TID 0000.0001)     ;
(PID.TID 0000.0001) PTRACERS_ImplVertAdv = /* implicit vert. advection flag */
(PID.TID 0000.0001)                   F
(PID.TID 0000.0001)     ;
(PID.TID 0000.0001) PTRACERS_diffKh = /* Laplacian Diffusivity */
(PID.TID 0000.0001)                 0.000000000000000E+00
(PID.TID 0000.0001)     ;
(PID.TID 0000.0001) PTRACERS_diffK4 = /* Biharmonic Diffusivity */
(PID.TID 0000.0001)                 0.000000000000000E+00
(PID.TID 0000.0001)     ;
(PID.TID 0000.0001) PTRACERS_diffKrNr = /* Vertical Diffusivity */
(PID.TID 0000.0001)    24 @  1.000000000000000E-06              /* K =  1: 24 */
(PID.TID 0000.0001)     ;
(PID.TID 0000.0001) PTRACERS_useGMRedi = /* apply GM-Redi */
(PID.TID 0000.0001)                   F
(PID.TID 0000.0001)     ;
(PID.TID 0000.0001) PTRACERS_useDWNSLP = /* apply DOWN-SLOPE Flow */
(PID.TID 0000.0001)                   F
(PID.TID 0000.0001)     ;
(PID.TID 0000.0001) PTRACERS_useKPP = /* apply KPP scheme */
(PID.TID 0000.0001)                   T
(PID.TID 0000.0001)     ;
(PID.TID 0000.0001) PTRACERS_ref = /* Reference vertical profile */
(PID.TID 0000.0001)    24 @  0.000000000000000E+00              /* K =  1: 24 */
(PID.TID 0000.0001)     ;
(PID.TID 0000.0001) PTRACERS_EvPrRn =/* tracer conc. in Evap. & Rain */
(PID.TID 0000.0001)                 1.234567000000000E+05
(PID.TID 0000.0001)     ;
(PID.TID 0000.0001)  -----------------------------------
(PID.TID 0000.0001)  tracer number :   63
(PID.TID 0000.0001) PTRACERS_ioLabel = /* tracer IO Label */
(PID.TID 0000.0001)               '63'
(PID.TID 0000.0001)     ;
(PID.TID 0000.0001) PTRACERS_advScheme = /* Advection Scheme */
(PID.TID 0000.0001)                      33
(PID.TID 0000.0001)     ;
(PID.TID 0000.0001) PTRACERS_ImplVertAdv = /* implicit vert. advection flag */
(PID.TID 0000.0001)                   F
(PID.TID 0000.0001)     ;
(PID.TID 0000.0001) PTRACERS_diffKh = /* Laplacian Diffusivity */
(PID.TID 0000.0001)                 0.000000000000000E+00
(PID.TID 0000.0001)     ;
(PID.TID 0000.0001) PTRACERS_diffK4 = /* Biharmonic Diffusivity */
(PID.TID 0000.0001)                 0.000000000000000E+00
(PID.TID 0000.0001)     ;
(PID.TID 0000.0001) PTRACERS_diffKrNr = /* Vertical Diffusivity */
(PID.TID 0000.0001)    24 @  1.000000000000000E-06              /* K =  1: 24 */
(PID.TID 0000.0001)     ;
(PID.TID 0000.0001) PTRACERS_useGMRedi = /* apply GM-Redi */
(PID.TID 0000.0001)                   F
(PID.TID 0000.0001)     ;
(PID.TID 0000.0001) PTRACERS_useDWNSLP = /* apply DOWN-SLOPE Flow */
(PID.TID 0000.0001)                   F
(PID.TID 0000.0001)     ;
(PID.TID 0000.0001) PTRACERS_useKPP = /* apply KPP scheme */
(PID.TID 0000.0001)                   T
(PID.TID 0000.0001)     ;
(PID.TID 0000.0001) PTRACERS_ref = /* Reference vertical profile */
(PID.TID 0000.0001)    24 @  0.000000000000000E+00              /* K =  1: 24 */
(PID.TID 0000.0001)     ;
(PID.TID 0000.0001) PTRACERS_EvPrRn =/* tracer conc. in Evap. & Rain */
(PID.TID 0000.0001)                 1.234567000000000E+05
(PID.TID 0000.0001)     ;
(PID.TID 0000.0001)  -----------------------------------
(PID.TID 0000.0001)  tracer number :   64
(PID.TID 0000.0001) PTRACERS_ioLabel = /* tracer IO Label */
(PID.TID 0000.0001)               '64'
(PID.TID 0000.0001)     ;
(PID.TID 0000.0001) PTRACERS_advScheme = /* Advection Scheme */
(PID.TID 0000.0001)                      33
(PID.TID 0000.0001)     ;
(PID.TID 0000.0001) PTRACERS_ImplVertAdv = /* implicit vert. advection flag */
(PID.TID 0000.0001)                   F
(PID.TID 0000.0001)     ;
(PID.TID 0000.0001) PTRACERS_diffKh = /* Laplacian Diffusivity */
(PID.TID 0000.0001)                 0.000000000000000E+00
(PID.TID 0000.0001)     ;
(PID.TID 0000.0001) PTRACERS_diffK4 = /* Biharmonic Diffusivity */
(PID.TID 0000.0001)                 0.000000000000000E+00
(PID.TID 0000.0001)     ;
(PID.TID 0000.0001) PTRACERS_diffKrNr = /* Vertical Diffusivity */
(PID.TID 0000.0001)    24 @  1.000000000000000E-06              /* K =  1: 24 */
(PID.TID 0000.0001)     ;
(PID.TID 0000.0001) PTRACERS_useGMRedi = /* apply GM-Redi */
(PID.TID 0000.0001)                   F
(PID.TID 0000.0001)     ;
(PID.TID 0000.0001) PTRACERS_useDWNSLP = /* apply DOWN-SLOPE Flow */
(PID.TID 0000.0001)                   F
(PID.TID 0000.0001)     ;
(PID.TID 0000.0001) PTRACERS_useKPP = /* apply KPP scheme */
(PID.TID 0000.0001)                   T
(PID.TID 0000.0001)     ;
(PID.TID 0000.0001) PTRACERS_ref = /* Reference vertical profile */
(PID.TID 0000.0001)    24 @  0.000000000000000E+00              /* K =  1: 24 */
(PID.TID 0000.0001)     ;
(PID.TID 0000.0001) PTRACERS_EvPrRn =/* tracer conc. in Evap. & Rain */
(PID.TID 0000.0001)                 1.234567000000000E+05
(PID.TID 0000.0001)     ;
(PID.TID 0000.0001)  -----------------------------------
(PID.TID 0000.0001)  tracer number :   65
(PID.TID 0000.0001) PTRACERS_ioLabel = /* tracer IO Label */
(PID.TID 0000.0001)               '65'
(PID.TID 0000.0001)     ;
(PID.TID 0000.0001) PTRACERS_advScheme = /* Advection Scheme */
(PID.TID 0000.0001)                      33
(PID.TID 0000.0001)     ;
(PID.TID 0000.0001) PTRACERS_ImplVertAdv = /* implicit vert. advection flag */
(PID.TID 0000.0001)                   F
(PID.TID 0000.0001)     ;
(PID.TID 0000.0001) PTRACERS_diffKh = /* Laplacian Diffusivity */
(PID.TID 0000.0001)                 0.000000000000000E+00
(PID.TID 0000.0001)     ;
(PID.TID 0000.0001) PTRACERS_diffK4 = /* Biharmonic Diffusivity */
(PID.TID 0000.0001)                 0.000000000000000E+00
(PID.TID 0000.0001)     ;
(PID.TID 0000.0001) PTRACERS_diffKrNr = /* Vertical Diffusivity */
(PID.TID 0000.0001)    24 @  1.000000000000000E-06              /* K =  1: 24 */
(PID.TID 0000.0001)     ;
(PID.TID 0000.0001) PTRACERS_useGMRedi = /* apply GM-Redi */
(PID.TID 0000.0001)                   F
(PID.TID 0000.0001)     ;
(PID.TID 0000.0001) PTRACERS_useDWNSLP = /* apply DOWN-SLOPE Flow */
(PID.TID 0000.0001)                   F
(PID.TID 0000.0001)     ;
(PID.TID 0000.0001) PTRACERS_useKPP = /* apply KPP scheme */
(PID.TID 0000.0001)                   T
(PID.TID 0000.0001)     ;
(PID.TID 0000.0001) PTRACERS_ref = /* Reference vertical profile */
(PID.TID 0000.0001)    24 @  0.000000000000000E+00              /* K =  1: 24 */
(PID.TID 0000.0001)     ;
(PID.TID 0000.0001) PTRACERS_EvPrRn =/* tracer conc. in Evap. & Rain */
(PID.TID 0000.0001)                 1.234567000000000E+05
(PID.TID 0000.0001)     ;
(PID.TID 0000.0001)  -----------------------------------
(PID.TID 0000.0001)  tracer number :   66
(PID.TID 0000.0001) PTRACERS_ioLabel = /* tracer IO Label */
(PID.TID 0000.0001)               '66'
(PID.TID 0000.0001)     ;
(PID.TID 0000.0001) PTRACERS_advScheme = /* Advection Scheme */
(PID.TID 0000.0001)                      33
(PID.TID 0000.0001)     ;
(PID.TID 0000.0001) PTRACERS_ImplVertAdv = /* implicit vert. advection flag */
(PID.TID 0000.0001)                   F
(PID.TID 0000.0001)     ;
(PID.TID 0000.0001) PTRACERS_diffKh = /* Laplacian Diffusivity */
(PID.TID 0000.0001)                 0.000000000000000E+00
(PID.TID 0000.0001)     ;
(PID.TID 0000.0001) PTRACERS_diffK4 = /* Biharmonic Diffusivity */
(PID.TID 0000.0001)                 0.000000000000000E+00
(PID.TID 0000.0001)     ;
(PID.TID 0000.0001) PTRACERS_diffKrNr = /* Vertical Diffusivity */
(PID.TID 0000.0001)    24 @  1.000000000000000E-06              /* K =  1: 24 */
(PID.TID 0000.0001)     ;
(PID.TID 0000.0001) PTRACERS_useGMRedi = /* apply GM-Redi */
(PID.TID 0000.0001)                   F
(PID.TID 0000.0001)     ;
(PID.TID 0000.0001) PTRACERS_useDWNSLP = /* apply DOWN-SLOPE Flow */
(PID.TID 0000.0001)                   F
(PID.TID 0000.0001)     ;
(PID.TID 0000.0001) PTRACERS_useKPP = /* apply KPP scheme */
(PID.TID 0000.0001)                   T
(PID.TID 0000.0001)     ;
(PID.TID 0000.0001) PTRACERS_ref = /* Reference vertical profile */
(PID.TID 0000.0001)    24 @  0.000000000000000E+00              /* K =  1: 24 */
(PID.TID 0000.0001)     ;
(PID.TID 0000.0001) PTRACERS_EvPrRn =/* tracer conc. in Evap. & Rain */
(PID.TID 0000.0001)                 1.234567000000000E+05
(PID.TID 0000.0001)     ;
(PID.TID 0000.0001)  -----------------------------------
(PID.TID 0000.0001)  tracer number :   67
(PID.TID 0000.0001) PTRACERS_ioLabel = /* tracer IO Label */
(PID.TID 0000.0001)               '67'
(PID.TID 0000.0001)     ;
(PID.TID 0000.0001) PTRACERS_advScheme = /* Advection Scheme */
(PID.TID 0000.0001)                      33
(PID.TID 0000.0001)     ;
(PID.TID 0000.0001) PTRACERS_ImplVertAdv = /* implicit vert. advection flag */
(PID.TID 0000.0001)                   F
(PID.TID 0000.0001)     ;
(PID.TID 0000.0001) PTRACERS_diffKh = /* Laplacian Diffusivity */
(PID.TID 0000.0001)                 0.000000000000000E+00
(PID.TID 0000.0001)     ;
(PID.TID 0000.0001) PTRACERS_diffK4 = /* Biharmonic Diffusivity */
(PID.TID 0000.0001)                 0.000000000000000E+00
(PID.TID 0000.0001)     ;
(PID.TID 0000.0001) PTRACERS_diffKrNr = /* Vertical Diffusivity */
(PID.TID 0000.0001)    24 @  1.000000000000000E-06              /* K =  1: 24 */
(PID.TID 0000.0001)     ;
(PID.TID 0000.0001) PTRACERS_useGMRedi = /* apply GM-Redi */
(PID.TID 0000.0001)                   F
(PID.TID 0000.0001)     ;
(PID.TID 0000.0001) PTRACERS_useDWNSLP = /* apply DOWN-SLOPE Flow */
(PID.TID 0000.0001)                   F
(PID.TID 0000.0001)     ;
(PID.TID 0000.0001) PTRACERS_useKPP = /* apply KPP scheme */
(PID.TID 0000.0001)                   T
(PID.TID 0000.0001)     ;
(PID.TID 0000.0001) PTRACERS_ref = /* Reference vertical profile */
(PID.TID 0000.0001)    24 @  0.000000000000000E+00              /* K =  1: 24 */
(PID.TID 0000.0001)     ;
(PID.TID 0000.0001) PTRACERS_EvPrRn =/* tracer conc. in Evap. & Rain */
(PID.TID 0000.0001)                 1.234567000000000E+05
(PID.TID 0000.0001)     ;
(PID.TID 0000.0001)  -----------------------------------
(PID.TID 0000.0001)  tracer number :   68
(PID.TID 0000.0001) PTRACERS_ioLabel = /* tracer IO Label */
(PID.TID 0000.0001)               '68'
(PID.TID 0000.0001)     ;
(PID.TID 0000.0001) PTRACERS_advScheme = /* Advection Scheme */
(PID.TID 0000.0001)                      33
(PID.TID 0000.0001)     ;
(PID.TID 0000.0001) PTRACERS_ImplVertAdv = /* implicit vert. advection flag */
(PID.TID 0000.0001)                   F
(PID.TID 0000.0001)     ;
(PID.TID 0000.0001) PTRACERS_diffKh = /* Laplacian Diffusivity */
(PID.TID 0000.0001)                 0.000000000000000E+00
(PID.TID 0000.0001)     ;
(PID.TID 0000.0001) PTRACERS_diffK4 = /* Biharmonic Diffusivity */
(PID.TID 0000.0001)                 0.000000000000000E+00
(PID.TID 0000.0001)     ;
(PID.TID 0000.0001) PTRACERS_diffKrNr = /* Vertical Diffusivity */
(PID.TID 0000.0001)    24 @  1.000000000000000E-06              /* K =  1: 24 */
(PID.TID 0000.0001)     ;
(PID.TID 0000.0001) PTRACERS_useGMRedi = /* apply GM-Redi */
(PID.TID 0000.0001)                   F
(PID.TID 0000.0001)     ;
(PID.TID 0000.0001) PTRACERS_useDWNSLP = /* apply DOWN-SLOPE Flow */
(PID.TID 0000.0001)                   F
(PID.TID 0000.0001)     ;
(PID.TID 0000.0001) PTRACERS_useKPP = /* apply KPP scheme */
(PID.TID 0000.0001)                   T
(PID.TID 0000.0001)     ;
(PID.TID 0000.0001) PTRACERS_ref = /* Reference vertical profile */
(PID.TID 0000.0001)    24 @  0.000000000000000E+00              /* K =  1: 24 */
(PID.TID 0000.0001)     ;
(PID.TID 0000.0001) PTRACERS_EvPrRn =/* tracer conc. in Evap. & Rain */
(PID.TID 0000.0001)                 1.234567000000000E+05
(PID.TID 0000.0001)     ;
(PID.TID 0000.0001)  -----------------------------------
(PID.TID 0000.0001)  tracer number :   69
(PID.TID 0000.0001) PTRACERS_ioLabel = /* tracer IO Label */
(PID.TID 0000.0001)               '69'
(PID.TID 0000.0001)     ;
(PID.TID 0000.0001) PTRACERS_advScheme = /* Advection Scheme */
(PID.TID 0000.0001)                      33
(PID.TID 0000.0001)     ;
(PID.TID 0000.0001) PTRACERS_ImplVertAdv = /* implicit vert. advection flag */
(PID.TID 0000.0001)                   F
(PID.TID 0000.0001)     ;
(PID.TID 0000.0001) PTRACERS_diffKh = /* Laplacian Diffusivity */
(PID.TID 0000.0001)                 0.000000000000000E+00
(PID.TID 0000.0001)     ;
(PID.TID 0000.0001) PTRACERS_diffK4 = /* Biharmonic Diffusivity */
(PID.TID 0000.0001)                 0.000000000000000E+00
(PID.TID 0000.0001)     ;
(PID.TID 0000.0001) PTRACERS_diffKrNr = /* Vertical Diffusivity */
(PID.TID 0000.0001)    24 @  1.000000000000000E-06              /* K =  1: 24 */
(PID.TID 0000.0001)     ;
(PID.TID 0000.0001) PTRACERS_useGMRedi = /* apply GM-Redi */
(PID.TID 0000.0001)                   F
(PID.TID 0000.0001)     ;
(PID.TID 0000.0001) PTRACERS_useDWNSLP = /* apply DOWN-SLOPE Flow */
(PID.TID 0000.0001)                   F
(PID.TID 0000.0001)     ;
(PID.TID 0000.0001) PTRACERS_useKPP = /* apply KPP scheme */
(PID.TID 0000.0001)                   T
(PID.TID 0000.0001)     ;
(PID.TID 0000.0001) PTRACERS_ref = /* Reference vertical profile */
(PID.TID 0000.0001)    24 @  0.000000000000000E+00              /* K =  1: 24 */
(PID.TID 0000.0001)     ;
(PID.TID 0000.0001) PTRACERS_EvPrRn =/* tracer conc. in Evap. & Rain */
(PID.TID 0000.0001)                 1.234567000000000E+05
(PID.TID 0000.0001)     ;
(PID.TID 0000.0001)  -----------------------------------
(PID.TID 0000.0001)  tracer number :   70
(PID.TID 0000.0001) PTRACERS_ioLabel = /* tracer IO Label */
(PID.TID 0000.0001)               '70'
(PID.TID 0000.0001)     ;
(PID.TID 0000.0001) PTRACERS_advScheme = /* Advection Scheme */
(PID.TID 0000.0001)                      33
(PID.TID 0000.0001)     ;
(PID.TID 0000.0001) PTRACERS_ImplVertAdv = /* implicit vert. advection flag */
(PID.TID 0000.0001)                   F
(PID.TID 0000.0001)     ;
(PID.TID 0000.0001) PTRACERS_diffKh = /* Laplacian Diffusivity */
(PID.TID 0000.0001)                 0.000000000000000E+00
(PID.TID 0000.0001)     ;
(PID.TID 0000.0001) PTRACERS_diffK4 = /* Biharmonic Diffusivity */
(PID.TID 0000.0001)                 0.000000000000000E+00
(PID.TID 0000.0001)     ;
(PID.TID 0000.0001) PTRACERS_diffKrNr = /* Vertical Diffusivity */
(PID.TID 0000.0001)    24 @  1.000000000000000E-06              /* K =  1: 24 */
(PID.TID 0000.0001)     ;
(PID.TID 0000.0001) PTRACERS_useGMRedi = /* apply GM-Redi */
(PID.TID 0000.0001)                   F
(PID.TID 0000.0001)     ;
(PID.TID 0000.0001) PTRACERS_useDWNSLP = /* apply DOWN-SLOPE Flow */
(PID.TID 0000.0001)                   F
(PID.TID 0000.0001)     ;
(PID.TID 0000.0001) PTRACERS_useKPP = /* apply KPP scheme */
(PID.TID 0000.0001)                   T
(PID.TID 0000.0001)     ;
(PID.TID 0000.0001) PTRACERS_ref = /* Reference vertical profile */
(PID.TID 0000.0001)    24 @  0.000000000000000E+00              /* K =  1: 24 */
(PID.TID 0000.0001)     ;
(PID.TID 0000.0001) PTRACERS_EvPrRn =/* tracer conc. in Evap. & Rain */
(PID.TID 0000.0001)                 1.234567000000000E+05
(PID.TID 0000.0001)     ;
(PID.TID 0000.0001)  -----------------------------------
(PID.TID 0000.0001)  tracer number :   71
(PID.TID 0000.0001) PTRACERS_ioLabel = /* tracer IO Label */
(PID.TID 0000.0001)               '71'
(PID.TID 0000.0001)     ;
(PID.TID 0000.0001) PTRACERS_advScheme = /* Advection Scheme */
(PID.TID 0000.0001)                      33
(PID.TID 0000.0001)     ;
(PID.TID 0000.0001) PTRACERS_ImplVertAdv = /* implicit vert. advection flag */
(PID.TID 0000.0001)                   F
(PID.TID 0000.0001)     ;
(PID.TID 0000.0001) PTRACERS_diffKh = /* Laplacian Diffusivity */
(PID.TID 0000.0001)                 0.000000000000000E+00
(PID.TID 0000.0001)     ;
(PID.TID 0000.0001) PTRACERS_diffK4 = /* Biharmonic Diffusivity */
(PID.TID 0000.0001)                 0.000000000000000E+00
(PID.TID 0000.0001)     ;
(PID.TID 0000.0001) PTRACERS_diffKrNr = /* Vertical Diffusivity */
(PID.TID 0000.0001)    24 @  1.000000000000000E-06              /* K =  1: 24 */
(PID.TID 0000.0001)     ;
(PID.TID 0000.0001) PTRACERS_useGMRedi = /* apply GM-Redi */
(PID.TID 0000.0001)                   F
(PID.TID 0000.0001)     ;
(PID.TID 0000.0001) PTRACERS_useDWNSLP = /* apply DOWN-SLOPE Flow */
(PID.TID 0000.0001)                   F
(PID.TID 0000.0001)     ;
(PID.TID 0000.0001) PTRACERS_useKPP = /* apply KPP scheme */
(PID.TID 0000.0001)                   T
(PID.TID 0000.0001)     ;
(PID.TID 0000.0001) PTRACERS_ref = /* Reference vertical profile */
(PID.TID 0000.0001)    24 @  0.000000000000000E+00              /* K =  1: 24 */
(PID.TID 0000.0001)     ;
(PID.TID 0000.0001) PTRACERS_EvPrRn =/* tracer conc. in Evap. & Rain */
(PID.TID 0000.0001)                 1.234567000000000E+05
(PID.TID 0000.0001)     ;
(PID.TID 0000.0001)  -----------------------------------
(PID.TID 0000.0001)  tracer number :   72
(PID.TID 0000.0001) PTRACERS_ioLabel = /* tracer IO Label */
(PID.TID 0000.0001)               '72'
(PID.TID 0000.0001)     ;
(PID.TID 0000.0001) PTRACERS_advScheme = /* Advection Scheme */
(PID.TID 0000.0001)                      33
(PID.TID 0000.0001)     ;
(PID.TID 0000.0001) PTRACERS_ImplVertAdv = /* implicit vert. advection flag */
(PID.TID 0000.0001)                   F
(PID.TID 0000.0001)     ;
(PID.TID 0000.0001) PTRACERS_diffKh = /* Laplacian Diffusivity */
(PID.TID 0000.0001)                 0.000000000000000E+00
(PID.TID 0000.0001)     ;
(PID.TID 0000.0001) PTRACERS_diffK4 = /* Biharmonic Diffusivity */
(PID.TID 0000.0001)                 0.000000000000000E+00
(PID.TID 0000.0001)     ;
(PID.TID 0000.0001) PTRACERS_diffKrNr = /* Vertical Diffusivity */
(PID.TID 0000.0001)    24 @  1.000000000000000E-06              /* K =  1: 24 */
(PID.TID 0000.0001)     ;
(PID.TID 0000.0001) PTRACERS_useGMRedi = /* apply GM-Redi */
(PID.TID 0000.0001)                   F
(PID.TID 0000.0001)     ;
(PID.TID 0000.0001) PTRACERS_useDWNSLP = /* apply DOWN-SLOPE Flow */
(PID.TID 0000.0001)                   F
(PID.TID 0000.0001)     ;
(PID.TID 0000.0001) PTRACERS_useKPP = /* apply KPP scheme */
(PID.TID 0000.0001)                   T
(PID.TID 0000.0001)     ;
(PID.TID 0000.0001) PTRACERS_ref = /* Reference vertical profile */
(PID.TID 0000.0001)    24 @  0.000000000000000E+00              /* K =  1: 24 */
(PID.TID 0000.0001)     ;
(PID.TID 0000.0001) PTRACERS_EvPrRn =/* tracer conc. in Evap. & Rain */
(PID.TID 0000.0001)                 1.234567000000000E+05
(PID.TID 0000.0001)     ;
(PID.TID 0000.0001)  -----------------------------------
(PID.TID 0000.0001)  tracer number :   73
(PID.TID 0000.0001) PTRACERS_ioLabel = /* tracer IO Label */
(PID.TID 0000.0001)               '73'
(PID.TID 0000.0001)     ;
(PID.TID 0000.0001) PTRACERS_advScheme = /* Advection Scheme */
(PID.TID 0000.0001)                      33
(PID.TID 0000.0001)     ;
(PID.TID 0000.0001) PTRACERS_ImplVertAdv = /* implicit vert. advection flag */
(PID.TID 0000.0001)                   F
(PID.TID 0000.0001)     ;
(PID.TID 0000.0001) PTRACERS_diffKh = /* Laplacian Diffusivity */
(PID.TID 0000.0001)                 0.000000000000000E+00
(PID.TID 0000.0001)     ;
(PID.TID 0000.0001) PTRACERS_diffK4 = /* Biharmonic Diffusivity */
(PID.TID 0000.0001)                 0.000000000000000E+00
(PID.TID 0000.0001)     ;
(PID.TID 0000.0001) PTRACERS_diffKrNr = /* Vertical Diffusivity */
(PID.TID 0000.0001)    24 @  1.000000000000000E-06              /* K =  1: 24 */
(PID.TID 0000.0001)     ;
(PID.TID 0000.0001) PTRACERS_useGMRedi = /* apply GM-Redi */
(PID.TID 0000.0001)                   F
(PID.TID 0000.0001)     ;
(PID.TID 0000.0001) PTRACERS_useDWNSLP = /* apply DOWN-SLOPE Flow */
(PID.TID 0000.0001)                   F
(PID.TID 0000.0001)     ;
(PID.TID 0000.0001) PTRACERS_useKPP = /* apply KPP scheme */
(PID.TID 0000.0001)                   T
(PID.TID 0000.0001)     ;
(PID.TID 0000.0001) PTRACERS_ref = /* Reference vertical profile */
(PID.TID 0000.0001)    24 @  0.000000000000000E+00              /* K =  1: 24 */
(PID.TID 0000.0001)     ;
(PID.TID 0000.0001) PTRACERS_EvPrRn =/* tracer conc. in Evap. & Rain */
(PID.TID 0000.0001)                 1.234567000000000E+05
(PID.TID 0000.0001)     ;
(PID.TID 0000.0001)  -----------------------------------
(PID.TID 0000.0001)  tracer number :   74
(PID.TID 0000.0001) PTRACERS_ioLabel = /* tracer IO Label */
(PID.TID 0000.0001)               '74'
(PID.TID 0000.0001)     ;
(PID.TID 0000.0001) PTRACERS_advScheme = /* Advection Scheme */
(PID.TID 0000.0001)                      33
(PID.TID 0000.0001)     ;
(PID.TID 0000.0001) PTRACERS_ImplVertAdv = /* implicit vert. advection flag */
(PID.TID 0000.0001)                   F
(PID.TID 0000.0001)     ;
(PID.TID 0000.0001) PTRACERS_diffKh = /* Laplacian Diffusivity */
(PID.TID 0000.0001)                 0.000000000000000E+00
(PID.TID 0000.0001)     ;
(PID.TID 0000.0001) PTRACERS_diffK4 = /* Biharmonic Diffusivity */
(PID.TID 0000.0001)                 0.000000000000000E+00
(PID.TID 0000.0001)     ;
(PID.TID 0000.0001) PTRACERS_diffKrNr = /* Vertical Diffusivity */
(PID.TID 0000.0001)    24 @  1.000000000000000E-06              /* K =  1: 24 */
(PID.TID 0000.0001)     ;
(PID.TID 0000.0001) PTRACERS_useGMRedi = /* apply GM-Redi */
(PID.TID 0000.0001)                   F
(PID.TID 0000.0001)     ;
(PID.TID 0000.0001) PTRACERS_useDWNSLP = /* apply DOWN-SLOPE Flow */
(PID.TID 0000.0001)                   F
(PID.TID 0000.0001)     ;
(PID.TID 0000.0001) PTRACERS_useKPP = /* apply KPP scheme */
(PID.TID 0000.0001)                   T
(PID.TID 0000.0001)     ;
(PID.TID 0000.0001) PTRACERS_ref = /* Reference vertical profile */
(PID.TID 0000.0001)    24 @  0.000000000000000E+00              /* K =  1: 24 */
(PID.TID 0000.0001)     ;
(PID.TID 0000.0001) PTRACERS_EvPrRn =/* tracer conc. in Evap. & Rain */
(PID.TID 0000.0001)                 1.234567000000000E+05
(PID.TID 0000.0001)     ;
(PID.TID 0000.0001)  -----------------------------------
(PID.TID 0000.0001)  tracer number :   75
(PID.TID 0000.0001) PTRACERS_ioLabel = /* tracer IO Label */
(PID.TID 0000.0001)               '75'
(PID.TID 0000.0001)     ;
(PID.TID 0000.0001) PTRACERS_advScheme = /* Advection Scheme */
(PID.TID 0000.0001)                      33
(PID.TID 0000.0001)     ;
(PID.TID 0000.0001) PTRACERS_ImplVertAdv = /* implicit vert. advection flag */
(PID.TID 0000.0001)                   F
(PID.TID 0000.0001)     ;
(PID.TID 0000.0001) PTRACERS_diffKh = /* Laplacian Diffusivity */
(PID.TID 0000.0001)                 0.000000000000000E+00
(PID.TID 0000.0001)     ;
(PID.TID 0000.0001) PTRACERS_diffK4 = /* Biharmonic Diffusivity */
(PID.TID 0000.0001)                 0.000000000000000E+00
(PID.TID 0000.0001)     ;
(PID.TID 0000.0001) PTRACERS_diffKrNr = /* Vertical Diffusivity */
(PID.TID 0000.0001)    24 @  1.000000000000000E-06              /* K =  1: 24 */
(PID.TID 0000.0001)     ;
(PID.TID 0000.0001) PTRACERS_useGMRedi = /* apply GM-Redi */
(PID.TID 0000.0001)                   F
(PID.TID 0000.0001)     ;
(PID.TID 0000.0001) PTRACERS_useDWNSLP = /* apply DOWN-SLOPE Flow */
(PID.TID 0000.0001)                   F
(PID.TID 0000.0001)     ;
(PID.TID 0000.0001) PTRACERS_useKPP = /* apply KPP scheme */
(PID.TID 0000.0001)                   T
(PID.TID 0000.0001)     ;
(PID.TID 0000.0001) PTRACERS_ref = /* Reference vertical profile */
(PID.TID 0000.0001)    24 @  0.000000000000000E+00              /* K =  1: 24 */
(PID.TID 0000.0001)     ;
(PID.TID 0000.0001) PTRACERS_EvPrRn =/* tracer conc. in Evap. & Rain */
(PID.TID 0000.0001)                 1.234567000000000E+05
(PID.TID 0000.0001)     ;
(PID.TID 0000.0001)  -----------------------------------
(PID.TID 0000.0001)  tracer number :   76
(PID.TID 0000.0001) PTRACERS_ioLabel = /* tracer IO Label */
(PID.TID 0000.0001)               '76'
(PID.TID 0000.0001)     ;
(PID.TID 0000.0001) PTRACERS_advScheme = /* Advection Scheme */
(PID.TID 0000.0001)                      33
(PID.TID 0000.0001)     ;
(PID.TID 0000.0001) PTRACERS_ImplVertAdv = /* implicit vert. advection flag */
(PID.TID 0000.0001)                   F
(PID.TID 0000.0001)     ;
(PID.TID 0000.0001) PTRACERS_diffKh = /* Laplacian Diffusivity */
(PID.TID 0000.0001)                 0.000000000000000E+00
(PID.TID 0000.0001)     ;
(PID.TID 0000.0001) PTRACERS_diffK4 = /* Biharmonic Diffusivity */
(PID.TID 0000.0001)                 0.000000000000000E+00
(PID.TID 0000.0001)     ;
(PID.TID 0000.0001) PTRACERS_diffKrNr = /* Vertical Diffusivity */
(PID.TID 0000.0001)    24 @  1.000000000000000E-06              /* K =  1: 24 */
(PID.TID 0000.0001)     ;
(PID.TID 0000.0001) PTRACERS_useGMRedi = /* apply GM-Redi */
(PID.TID 0000.0001)                   F
(PID.TID 0000.0001)     ;
(PID.TID 0000.0001) PTRACERS_useDWNSLP = /* apply DOWN-SLOPE Flow */
(PID.TID 0000.0001)                   F
(PID.TID 0000.0001)     ;
(PID.TID 0000.0001) PTRACERS_useKPP = /* apply KPP scheme */
(PID.TID 0000.0001)                   T
(PID.TID 0000.0001)     ;
(PID.TID 0000.0001) PTRACERS_ref = /* Reference vertical profile */
(PID.TID 0000.0001)    24 @  0.000000000000000E+00              /* K =  1: 24 */
(PID.TID 0000.0001)     ;
(PID.TID 0000.0001) PTRACERS_EvPrRn =/* tracer conc. in Evap. & Rain */
(PID.TID 0000.0001)                 1.234567000000000E+05
(PID.TID 0000.0001)     ;
(PID.TID 0000.0001)  -----------------------------------
(PID.TID 0000.0001)  tracer number :   77
(PID.TID 0000.0001) PTRACERS_ioLabel = /* tracer IO Label */
(PID.TID 0000.0001)               '77'
(PID.TID 0000.0001)     ;
(PID.TID 0000.0001) PTRACERS_advScheme = /* Advection Scheme */
(PID.TID 0000.0001)                      33
(PID.TID 0000.0001)     ;
(PID.TID 0000.0001) PTRACERS_ImplVertAdv = /* implicit vert. advection flag */
(PID.TID 0000.0001)                   F
(PID.TID 0000.0001)     ;
(PID.TID 0000.0001) PTRACERS_diffKh = /* Laplacian Diffusivity */
(PID.TID 0000.0001)                 0.000000000000000E+00
(PID.TID 0000.0001)     ;
(PID.TID 0000.0001) PTRACERS_diffK4 = /* Biharmonic Diffusivity */
(PID.TID 0000.0001)                 0.000000000000000E+00
(PID.TID 0000.0001)     ;
(PID.TID 0000.0001) PTRACERS_diffKrNr = /* Vertical Diffusivity */
(PID.TID 0000.0001)    24 @  1.000000000000000E-06              /* K =  1: 24 */
(PID.TID 0000.0001)     ;
(PID.TID 0000.0001) PTRACERS_useGMRedi = /* apply GM-Redi */
(PID.TID 0000.0001)                   F
(PID.TID 0000.0001)     ;
(PID.TID 0000.0001) PTRACERS_useDWNSLP = /* apply DOWN-SLOPE Flow */
(PID.TID 0000.0001)                   F
(PID.TID 0000.0001)     ;
(PID.TID 0000.0001) PTRACERS_useKPP = /* apply KPP scheme */
(PID.TID 0000.0001)                   T
(PID.TID 0000.0001)     ;
(PID.TID 0000.0001) PTRACERS_ref = /* Reference vertical profile */
(PID.TID 0000.0001)    24 @  0.000000000000000E+00              /* K =  1: 24 */
(PID.TID 0000.0001)     ;
(PID.TID 0000.0001) PTRACERS_EvPrRn =/* tracer conc. in Evap. & Rain */
(PID.TID 0000.0001)                 1.234567000000000E+05
(PID.TID 0000.0001)     ;
(PID.TID 0000.0001)  -----------------------------------
(PID.TID 0000.0001)  tracer number :   78
(PID.TID 0000.0001) PTRACERS_ioLabel = /* tracer IO Label */
(PID.TID 0000.0001)               '78'
(PID.TID 0000.0001)     ;
(PID.TID 0000.0001) PTRACERS_advScheme = /* Advection Scheme */
(PID.TID 0000.0001)                      33
(PID.TID 0000.0001)     ;
(PID.TID 0000.0001) PTRACERS_ImplVertAdv = /* implicit vert. advection flag */
(PID.TID 0000.0001)                   F
(PID.TID 0000.0001)     ;
(PID.TID 0000.0001) PTRACERS_diffKh = /* Laplacian Diffusivity */
(PID.TID 0000.0001)                 0.000000000000000E+00
(PID.TID 0000.0001)     ;
(PID.TID 0000.0001) PTRACERS_diffK4 = /* Biharmonic Diffusivity */
(PID.TID 0000.0001)                 0.000000000000000E+00
(PID.TID 0000.0001)     ;
(PID.TID 0000.0001) PTRACERS_diffKrNr = /* Vertical Diffusivity */
(PID.TID 0000.0001)    24 @  1.000000000000000E-06              /* K =  1: 24 */
(PID.TID 0000.0001)     ;
(PID.TID 0000.0001) PTRACERS_useGMRedi = /* apply GM-Redi */
(PID.TID 0000.0001)                   F
(PID.TID 0000.0001)     ;
(PID.TID 0000.0001) PTRACERS_useDWNSLP = /* apply DOWN-SLOPE Flow */
(PID.TID 0000.0001)                   F
(PID.TID 0000.0001)     ;
(PID.TID 0000.0001) PTRACERS_useKPP = /* apply KPP scheme */
(PID.TID 0000.0001)                   T
(PID.TID 0000.0001)     ;
(PID.TID 0000.0001) PTRACERS_ref = /* Reference vertical profile */
(PID.TID 0000.0001)    24 @  0.000000000000000E+00              /* K =  1: 24 */
(PID.TID 0000.0001)     ;
(PID.TID 0000.0001) PTRACERS_EvPrRn =/* tracer conc. in Evap. & Rain */
(PID.TID 0000.0001)                 1.234567000000000E+05
(PID.TID 0000.0001)     ;
(PID.TID 0000.0001)  -----------------------------------
(PID.TID 0000.0001)  tracer number :   79
(PID.TID 0000.0001) PTRACERS_ioLabel = /* tracer IO Label */
(PID.TID 0000.0001)               '79'
(PID.TID 0000.0001)     ;
(PID.TID 0000.0001) PTRACERS_advScheme = /* Advection Scheme */
(PID.TID 0000.0001)                      33
(PID.TID 0000.0001)     ;
(PID.TID 0000.0001) PTRACERS_ImplVertAdv = /* implicit vert. advection flag */
(PID.TID 0000.0001)                   F
(PID.TID 0000.0001)     ;
(PID.TID 0000.0001) PTRACERS_diffKh = /* Laplacian Diffusivity */
(PID.TID 0000.0001)                 0.000000000000000E+00
(PID.TID 0000.0001)     ;
(PID.TID 0000.0001) PTRACERS_diffK4 = /* Biharmonic Diffusivity */
(PID.TID 0000.0001)                 0.000000000000000E+00
(PID.TID 0000.0001)     ;
(PID.TID 0000.0001) PTRACERS_diffKrNr = /* Vertical Diffusivity */
(PID.TID 0000.0001)    24 @  1.000000000000000E-06              /* K =  1: 24 */
(PID.TID 0000.0001)     ;
(PID.TID 0000.0001) PTRACERS_useGMRedi = /* apply GM-Redi */
(PID.TID 0000.0001)                   F
(PID.TID 0000.0001)     ;
(PID.TID 0000.0001) PTRACERS_useDWNSLP = /* apply DOWN-SLOPE Flow */
(PID.TID 0000.0001)                   F
(PID.TID 0000.0001)     ;
(PID.TID 0000.0001) PTRACERS_useKPP = /* apply KPP scheme */
(PID.TID 0000.0001)                   T
(PID.TID 0000.0001)     ;
(PID.TID 0000.0001) PTRACERS_ref = /* Reference vertical profile */
(PID.TID 0000.0001)    24 @  0.000000000000000E+00              /* K =  1: 24 */
(PID.TID 0000.0001)     ;
(PID.TID 0000.0001) PTRACERS_EvPrRn =/* tracer conc. in Evap. & Rain */
(PID.TID 0000.0001)                 1.234567000000000E+05
(PID.TID 0000.0001)     ;
(PID.TID 0000.0001)  -----------------------------------
(PID.TID 0000.0001)  tracer number :   80
(PID.TID 0000.0001) PTRACERS_ioLabel = /* tracer IO Label */
(PID.TID 0000.0001)               '80'
(PID.TID 0000.0001)     ;
(PID.TID 0000.0001) PTRACERS_advScheme = /* Advection Scheme */
(PID.TID 0000.0001)                      33
(PID.TID 0000.0001)     ;
(PID.TID 0000.0001) PTRACERS_ImplVertAdv = /* implicit vert. advection flag */
(PID.TID 0000.0001)                   F
(PID.TID 0000.0001)     ;
(PID.TID 0000.0001) PTRACERS_diffKh = /* Laplacian Diffusivity */
(PID.TID 0000.0001)                 0.000000000000000E+00
(PID.TID 0000.0001)     ;
(PID.TID 0000.0001) PTRACERS_diffK4 = /* Biharmonic Diffusivity */
(PID.TID 0000.0001)                 0.000000000000000E+00
(PID.TID 0000.0001)     ;
(PID.TID 0000.0001) PTRACERS_diffKrNr = /* Vertical Diffusivity */
(PID.TID 0000.0001)    24 @  1.000000000000000E-06              /* K =  1: 24 */
(PID.TID 0000.0001)     ;
(PID.TID 0000.0001) PTRACERS_useGMRedi = /* apply GM-Redi */
(PID.TID 0000.0001)                   F
(PID.TID 0000.0001)     ;
(PID.TID 0000.0001) PTRACERS_useDWNSLP = /* apply DOWN-SLOPE Flow */
(PID.TID 0000.0001)                   F
(PID.TID 0000.0001)     ;
(PID.TID 0000.0001) PTRACERS_useKPP = /* apply KPP scheme */
(PID.TID 0000.0001)                   T
(PID.TID 0000.0001)     ;
(PID.TID 0000.0001) PTRACERS_ref = /* Reference vertical profile */
(PID.TID 0000.0001)    24 @  0.000000000000000E+00              /* K =  1: 24 */
(PID.TID 0000.0001)     ;
(PID.TID 0000.0001) PTRACERS_EvPrRn =/* tracer conc. in Evap. & Rain */
(PID.TID 0000.0001)                 1.234567000000000E+05
(PID.TID 0000.0001)     ;
(PID.TID 0000.0001)  -----------------------------------
(PID.TID 0000.0001)  tracer number :   81
(PID.TID 0000.0001) PTRACERS_ioLabel = /* tracer IO Label */
(PID.TID 0000.0001)               '81'
(PID.TID 0000.0001)     ;
(PID.TID 0000.0001) PTRACERS_advScheme = /* Advection Scheme */
(PID.TID 0000.0001)                      33
(PID.TID 0000.0001)     ;
(PID.TID 0000.0001) PTRACERS_ImplVertAdv = /* implicit vert. advection flag */
(PID.TID 0000.0001)                   F
(PID.TID 0000.0001)     ;
(PID.TID 0000.0001) PTRACERS_diffKh = /* Laplacian Diffusivity */
(PID.TID 0000.0001)                 0.000000000000000E+00
(PID.TID 0000.0001)     ;
(PID.TID 0000.0001) PTRACERS_diffK4 = /* Biharmonic Diffusivity */
(PID.TID 0000.0001)                 0.000000000000000E+00
(PID.TID 0000.0001)     ;
(PID.TID 0000.0001) PTRACERS_diffKrNr = /* Vertical Diffusivity */
(PID.TID 0000.0001)    24 @  1.000000000000000E-06              /* K =  1: 24 */
(PID.TID 0000.0001)     ;
(PID.TID 0000.0001) PTRACERS_useGMRedi = /* apply GM-Redi */
(PID.TID 0000.0001)                   F
(PID.TID 0000.0001)     ;
(PID.TID 0000.0001) PTRACERS_useDWNSLP = /* apply DOWN-SLOPE Flow */
(PID.TID 0000.0001)                   F
(PID.TID 0000.0001)     ;
(PID.TID 0000.0001) PTRACERS_useKPP = /* apply KPP scheme */
(PID.TID 0000.0001)                   T
(PID.TID 0000.0001)     ;
(PID.TID 0000.0001) PTRACERS_ref = /* Reference vertical profile */
(PID.TID 0000.0001)    24 @  0.000000000000000E+00              /* K =  1: 24 */
(PID.TID 0000.0001)     ;
(PID.TID 0000.0001) PTRACERS_EvPrRn =/* tracer conc. in Evap. & Rain */
(PID.TID 0000.0001)                 1.234567000000000E+05
(PID.TID 0000.0001)     ;
(PID.TID 0000.0001)  -----------------------------------
(PID.TID 0000.0001)  tracer number :   82
(PID.TID 0000.0001) PTRACERS_ioLabel = /* tracer IO Label */
(PID.TID 0000.0001)               '82'
(PID.TID 0000.0001)     ;
(PID.TID 0000.0001) PTRACERS_advScheme = /* Advection Scheme */
(PID.TID 0000.0001)                      33
(PID.TID 0000.0001)     ;
(PID.TID 0000.0001) PTRACERS_ImplVertAdv = /* implicit vert. advection flag */
(PID.TID 0000.0001)                   F
(PID.TID 0000.0001)     ;
(PID.TID 0000.0001) PTRACERS_diffKh = /* Laplacian Diffusivity */
(PID.TID 0000.0001)                 0.000000000000000E+00
(PID.TID 0000.0001)     ;
(PID.TID 0000.0001) PTRACERS_diffK4 = /* Biharmonic Diffusivity */
(PID.TID 0000.0001)                 0.000000000000000E+00
(PID.TID 0000.0001)     ;
(PID.TID 0000.0001) PTRACERS_diffKrNr = /* Vertical Diffusivity */
(PID.TID 0000.0001)    24 @  1.000000000000000E-06              /* K =  1: 24 */
(PID.TID 0000.0001)     ;
(PID.TID 0000.0001) PTRACERS_useGMRedi = /* apply GM-Redi */
(PID.TID 0000.0001)                   F
(PID.TID 0000.0001)     ;
(PID.TID 0000.0001) PTRACERS_useDWNSLP = /* apply DOWN-SLOPE Flow */
(PID.TID 0000.0001)                   F
(PID.TID 0000.0001)     ;
(PID.TID 0000.0001) PTRACERS_useKPP = /* apply KPP scheme */
(PID.TID 0000.0001)                   T
(PID.TID 0000.0001)     ;
(PID.TID 0000.0001) PTRACERS_ref = /* Reference vertical profile */
(PID.TID 0000.0001)    24 @  0.000000000000000E+00              /* K =  1: 24 */
(PID.TID 0000.0001)     ;
(PID.TID 0000.0001) PTRACERS_EvPrRn =/* tracer conc. in Evap. & Rain */
(PID.TID 0000.0001)                 1.234567000000000E+05
(PID.TID 0000.0001)     ;
(PID.TID 0000.0001)  -----------------------------------
(PID.TID 0000.0001)  tracer number :   83
(PID.TID 0000.0001) PTRACERS_ioLabel = /* tracer IO Label */
(PID.TID 0000.0001)               '83'
(PID.TID 0000.0001)     ;
(PID.TID 0000.0001) PTRACERS_advScheme = /* Advection Scheme */
(PID.TID 0000.0001)                      33
(PID.TID 0000.0001)     ;
(PID.TID 0000.0001) PTRACERS_ImplVertAdv = /* implicit vert. advection flag */
(PID.TID 0000.0001)                   F
(PID.TID 0000.0001)     ;
(PID.TID 0000.0001) PTRACERS_diffKh = /* Laplacian Diffusivity */
(PID.TID 0000.0001)                 0.000000000000000E+00
(PID.TID 0000.0001)     ;
(PID.TID 0000.0001) PTRACERS_diffK4 = /* Biharmonic Diffusivity */
(PID.TID 0000.0001)                 0.000000000000000E+00
(PID.TID 0000.0001)     ;
(PID.TID 0000.0001) PTRACERS_diffKrNr = /* Vertical Diffusivity */
(PID.TID 0000.0001)    24 @  1.000000000000000E-06              /* K =  1: 24 */
(PID.TID 0000.0001)     ;
(PID.TID 0000.0001) PTRACERS_useGMRedi = /* apply GM-Redi */
(PID.TID 0000.0001)                   F
(PID.TID 0000.0001)     ;
(PID.TID 0000.0001) PTRACERS_useDWNSLP = /* apply DOWN-SLOPE Flow */
(PID.TID 0000.0001)                   F
(PID.TID 0000.0001)     ;
(PID.TID 0000.0001) PTRACERS_useKPP = /* apply KPP scheme */
(PID.TID 0000.0001)                   T
(PID.TID 0000.0001)     ;
(PID.TID 0000.0001) PTRACERS_ref = /* Reference vertical profile */
(PID.TID 0000.0001)    24 @  0.000000000000000E+00              /* K =  1: 24 */
(PID.TID 0000.0001)     ;
(PID.TID 0000.0001) PTRACERS_EvPrRn =/* tracer conc. in Evap. & Rain */
(PID.TID 0000.0001)                 1.234567000000000E+05
(PID.TID 0000.0001)     ;
(PID.TID 0000.0001)  -----------------------------------
(PID.TID 0000.0001)  tracer number :   84
(PID.TID 0000.0001) PTRACERS_ioLabel = /* tracer IO Label */
(PID.TID 0000.0001)               '84'
(PID.TID 0000.0001)     ;
(PID.TID 0000.0001) PTRACERS_advScheme = /* Advection Scheme */
(PID.TID 0000.0001)                      33
(PID.TID 0000.0001)     ;
(PID.TID 0000.0001) PTRACERS_ImplVertAdv = /* implicit vert. advection flag */
(PID.TID 0000.0001)                   F
(PID.TID 0000.0001)     ;
(PID.TID 0000.0001) PTRACERS_diffKh = /* Laplacian Diffusivity */
(PID.TID 0000.0001)                 0.000000000000000E+00
(PID.TID 0000.0001)     ;
(PID.TID 0000.0001) PTRACERS_diffK4 = /* Biharmonic Diffusivity */
(PID.TID 0000.0001)                 0.000000000000000E+00
(PID.TID 0000.0001)     ;
(PID.TID 0000.0001) PTRACERS_diffKrNr = /* Vertical Diffusivity */
(PID.TID 0000.0001)    24 @  1.000000000000000E-06              /* K =  1: 24 */
(PID.TID 0000.0001)     ;
(PID.TID 0000.0001) PTRACERS_useGMRedi = /* apply GM-Redi */
(PID.TID 0000.0001)                   F
(PID.TID 0000.0001)     ;
(PID.TID 0000.0001) PTRACERS_useDWNSLP = /* apply DOWN-SLOPE Flow */
(PID.TID 0000.0001)                   F
(PID.TID 0000.0001)     ;
(PID.TID 0000.0001) PTRACERS_useKPP = /* apply KPP scheme */
(PID.TID 0000.0001)                   T
(PID.TID 0000.0001)     ;
(PID.TID 0000.0001) PTRACERS_ref = /* Reference vertical profile */
(PID.TID 0000.0001)    24 @  0.000000000000000E+00              /* K =  1: 24 */
(PID.TID 0000.0001)     ;
(PID.TID 0000.0001) PTRACERS_EvPrRn =/* tracer conc. in Evap. & Rain */
(PID.TID 0000.0001)                 1.234567000000000E+05
(PID.TID 0000.0001)     ;
(PID.TID 0000.0001)  -----------------------------------
(PID.TID 0000.0001)  tracer number :   85
(PID.TID 0000.0001) PTRACERS_ioLabel = /* tracer IO Label */
(PID.TID 0000.0001)               '85'
(PID.TID 0000.0001)     ;
(PID.TID 0000.0001) PTRACERS_advScheme = /* Advection Scheme */
(PID.TID 0000.0001)                      33
(PID.TID 0000.0001)     ;
(PID.TID 0000.0001) PTRACERS_ImplVertAdv = /* implicit vert. advection flag */
(PID.TID 0000.0001)                   F
(PID.TID 0000.0001)     ;
(PID.TID 0000.0001) PTRACERS_diffKh = /* Laplacian Diffusivity */
(PID.TID 0000.0001)                 0.000000000000000E+00
(PID.TID 0000.0001)     ;
(PID.TID 0000.0001) PTRACERS_diffK4 = /* Biharmonic Diffusivity */
(PID.TID 0000.0001)                 0.000000000000000E+00
(PID.TID 0000.0001)     ;
(PID.TID 0000.0001) PTRACERS_diffKrNr = /* Vertical Diffusivity */
(PID.TID 0000.0001)    24 @  1.000000000000000E-06              /* K =  1: 24 */
(PID.TID 0000.0001)     ;
(PID.TID 0000.0001) PTRACERS_useGMRedi = /* apply GM-Redi */
(PID.TID 0000.0001)                   F
(PID.TID 0000.0001)     ;
(PID.TID 0000.0001) PTRACERS_useDWNSLP = /* apply DOWN-SLOPE Flow */
(PID.TID 0000.0001)                   F
(PID.TID 0000.0001)     ;
(PID.TID 0000.0001) PTRACERS_useKPP = /* apply KPP scheme */
(PID.TID 0000.0001)                   T
(PID.TID 0000.0001)     ;
(PID.TID 0000.0001) PTRACERS_ref = /* Reference vertical profile */
(PID.TID 0000.0001)    24 @  0.000000000000000E+00              /* K =  1: 24 */
(PID.TID 0000.0001)     ;
(PID.TID 0000.0001) PTRACERS_EvPrRn =/* tracer conc. in Evap. & Rain */
(PID.TID 0000.0001)                 1.234567000000000E+05
(PID.TID 0000.0001)     ;
(PID.TID 0000.0001)  -----------------------------------
(PID.TID 0000.0001)  tracer number :   86
(PID.TID 0000.0001) PTRACERS_ioLabel = /* tracer IO Label */
(PID.TID 0000.0001)               '86'
(PID.TID 0000.0001)     ;
(PID.TID 0000.0001) PTRACERS_advScheme = /* Advection Scheme */
(PID.TID 0000.0001)                      33
(PID.TID 0000.0001)     ;
(PID.TID 0000.0001) PTRACERS_ImplVertAdv = /* implicit vert. advection flag */
(PID.TID 0000.0001)                   F
(PID.TID 0000.0001)     ;
(PID.TID 0000.0001) PTRACERS_diffKh = /* Laplacian Diffusivity */
(PID.TID 0000.0001)                 0.000000000000000E+00
(PID.TID 0000.0001)     ;
(PID.TID 0000.0001) PTRACERS_diffK4 = /* Biharmonic Diffusivity */
(PID.TID 0000.0001)                 0.000000000000000E+00
(PID.TID 0000.0001)     ;
(PID.TID 0000.0001) PTRACERS_diffKrNr = /* Vertical Diffusivity */
(PID.TID 0000.0001)    24 @  1.000000000000000E-06              /* K =  1: 24 */
(PID.TID 0000.0001)     ;
(PID.TID 0000.0001) PTRACERS_useGMRedi = /* apply GM-Redi */
(PID.TID 0000.0001)                   F
(PID.TID 0000.0001)     ;
(PID.TID 0000.0001) PTRACERS_useDWNSLP = /* apply DOWN-SLOPE Flow */
(PID.TID 0000.0001)                   F
(PID.TID 0000.0001)     ;
(PID.TID 0000.0001) PTRACERS_useKPP = /* apply KPP scheme */
(PID.TID 0000.0001)                   T
(PID.TID 0000.0001)     ;
(PID.TID 0000.0001) PTRACERS_ref = /* Reference vertical profile */
(PID.TID 0000.0001)    24 @  0.000000000000000E+00              /* K =  1: 24 */
(PID.TID 0000.0001)     ;
(PID.TID 0000.0001) PTRACERS_EvPrRn =/* tracer conc. in Evap. & Rain */
(PID.TID 0000.0001)                 1.234567000000000E+05
(PID.TID 0000.0001)     ;
(PID.TID 0000.0001)  -----------------------------------
(PID.TID 0000.0001)  tracer number :   87
(PID.TID 0000.0001) PTRACERS_ioLabel = /* tracer IO Label */
(PID.TID 0000.0001)               '87'
(PID.TID 0000.0001)     ;
(PID.TID 0000.0001) PTRACERS_advScheme = /* Advection Scheme */
(PID.TID 0000.0001)                      33
(PID.TID 0000.0001)     ;
(PID.TID 0000.0001) PTRACERS_ImplVertAdv = /* implicit vert. advection flag */
(PID.TID 0000.0001)                   F
(PID.TID 0000.0001)     ;
(PID.TID 0000.0001) PTRACERS_diffKh = /* Laplacian Diffusivity */
(PID.TID 0000.0001)                 0.000000000000000E+00
(PID.TID 0000.0001)     ;
(PID.TID 0000.0001) PTRACERS_diffK4 = /* Biharmonic Diffusivity */
(PID.TID 0000.0001)                 0.000000000000000E+00
(PID.TID 0000.0001)     ;
(PID.TID 0000.0001) PTRACERS_diffKrNr = /* Vertical Diffusivity */
(PID.TID 0000.0001)    24 @  1.000000000000000E-06              /* K =  1: 24 */
(PID.TID 0000.0001)     ;
(PID.TID 0000.0001) PTRACERS_useGMRedi = /* apply GM-Redi */
(PID.TID 0000.0001)                   F
(PID.TID 0000.0001)     ;
(PID.TID 0000.0001) PTRACERS_useDWNSLP = /* apply DOWN-SLOPE Flow */
(PID.TID 0000.0001)                   F
(PID.TID 0000.0001)     ;
(PID.TID 0000.0001) PTRACERS_useKPP = /* apply KPP scheme */
(PID.TID 0000.0001)                   T
(PID.TID 0000.0001)     ;
(PID.TID 0000.0001) PTRACERS_ref = /* Reference vertical profile */
(PID.TID 0000.0001)    24 @  0.000000000000000E+00              /* K =  1: 24 */
(PID.TID 0000.0001)     ;
(PID.TID 0000.0001) PTRACERS_EvPrRn =/* tracer conc. in Evap. & Rain */
(PID.TID 0000.0001)                 1.234567000000000E+05
(PID.TID 0000.0001)     ;
(PID.TID 0000.0001)  -----------------------------------
(PID.TID 0000.0001)  tracer number :   88
(PID.TID 0000.0001) PTRACERS_ioLabel = /* tracer IO Label */
(PID.TID 0000.0001)               '88'
(PID.TID 0000.0001)     ;
(PID.TID 0000.0001) PTRACERS_advScheme = /* Advection Scheme */
(PID.TID 0000.0001)                      33
(PID.TID 0000.0001)     ;
(PID.TID 0000.0001) PTRACERS_ImplVertAdv = /* implicit vert. advection flag */
(PID.TID 0000.0001)                   F
(PID.TID 0000.0001)     ;
(PID.TID 0000.0001) PTRACERS_diffKh = /* Laplacian Diffusivity */
(PID.TID 0000.0001)                 0.000000000000000E+00
(PID.TID 0000.0001)     ;
(PID.TID 0000.0001) PTRACERS_diffK4 = /* Biharmonic Diffusivity */
(PID.TID 0000.0001)                 0.000000000000000E+00
(PID.TID 0000.0001)     ;
(PID.TID 0000.0001) PTRACERS_diffKrNr = /* Vertical Diffusivity */
(PID.TID 0000.0001)    24 @  1.000000000000000E-06              /* K =  1: 24 */
(PID.TID 0000.0001)     ;
(PID.TID 0000.0001) PTRACERS_useGMRedi = /* apply GM-Redi */
(PID.TID 0000.0001)                   F
(PID.TID 0000.0001)     ;
(PID.TID 0000.0001) PTRACERS_useDWNSLP = /* apply DOWN-SLOPE Flow */
(PID.TID 0000.0001)                   F
(PID.TID 0000.0001)     ;
(PID.TID 0000.0001) PTRACERS_useKPP = /* apply KPP scheme */
(PID.TID 0000.0001)                   T
(PID.TID 0000.0001)     ;
(PID.TID 0000.0001) PTRACERS_ref = /* Reference vertical profile */
(PID.TID 0000.0001)    24 @  0.000000000000000E+00              /* K =  1: 24 */
(PID.TID 0000.0001)     ;
(PID.TID 0000.0001) PTRACERS_EvPrRn =/* tracer conc. in Evap. & Rain */
(PID.TID 0000.0001)                 1.234567000000000E+05
(PID.TID 0000.0001)     ;
(PID.TID 0000.0001)  -----------------------------------
(PID.TID 0000.0001)  tracer number :   89
(PID.TID 0000.0001) PTRACERS_ioLabel = /* tracer IO Label */
(PID.TID 0000.0001)               '89'
(PID.TID 0000.0001)     ;
(PID.TID 0000.0001) PTRACERS_advScheme = /* Advection Scheme */
(PID.TID 0000.0001)                      33
(PID.TID 0000.0001)     ;
(PID.TID 0000.0001) PTRACERS_ImplVertAdv = /* implicit vert. advection flag */
(PID.TID 0000.0001)                   F
(PID.TID 0000.0001)     ;
(PID.TID 0000.0001) PTRACERS_diffKh = /* Laplacian Diffusivity */
(PID.TID 0000.0001)                 0.000000000000000E+00
(PID.TID 0000.0001)     ;
(PID.TID 0000.0001) PTRACERS_diffK4 = /* Biharmonic Diffusivity */
(PID.TID 0000.0001)                 0.000000000000000E+00
(PID.TID 0000.0001)     ;
(PID.TID 0000.0001) PTRACERS_diffKrNr = /* Vertical Diffusivity */
(PID.TID 0000.0001)    24 @  1.000000000000000E-06              /* K =  1: 24 */
(PID.TID 0000.0001)     ;
(PID.TID 0000.0001) PTRACERS_useGMRedi = /* apply GM-Redi */
(PID.TID 0000.0001)                   F
(PID.TID 0000.0001)     ;
(PID.TID 0000.0001) PTRACERS_useDWNSLP = /* apply DOWN-SLOPE Flow */
(PID.TID 0000.0001)                   F
(PID.TID 0000.0001)     ;
(PID.TID 0000.0001) PTRACERS_useKPP = /* apply KPP scheme */
(PID.TID 0000.0001)                   T
(PID.TID 0000.0001)     ;
(PID.TID 0000.0001) PTRACERS_ref = /* Reference vertical profile */
(PID.TID 0000.0001)    24 @  0.000000000000000E+00              /* K =  1: 24 */
(PID.TID 0000.0001)     ;
(PID.TID 0000.0001) PTRACERS_EvPrRn =/* tracer conc. in Evap. & Rain */
(PID.TID 0000.0001)                 1.234567000000000E+05
(PID.TID 0000.0001)     ;
(PID.TID 0000.0001)  -----------------------------------
(PID.TID 0000.0001)  tracer number :   90
(PID.TID 0000.0001) PTRACERS_ioLabel = /* tracer IO Label */
(PID.TID 0000.0001)               '90'
(PID.TID 0000.0001)     ;
(PID.TID 0000.0001) PTRACERS_advScheme = /* Advection Scheme */
(PID.TID 0000.0001)                      33
(PID.TID 0000.0001)     ;
(PID.TID 0000.0001) PTRACERS_ImplVertAdv = /* implicit vert. advection flag */
(PID.TID 0000.0001)                   F
(PID.TID 0000.0001)     ;
(PID.TID 0000.0001) PTRACERS_diffKh = /* Laplacian Diffusivity */
(PID.TID 0000.0001)                 0.000000000000000E+00
(PID.TID 0000.0001)     ;
(PID.TID 0000.0001) PTRACERS_diffK4 = /* Biharmonic Diffusivity */
(PID.TID 0000.0001)                 0.000000000000000E+00
(PID.TID 0000.0001)     ;
(PID.TID 0000.0001) PTRACERS_diffKrNr = /* Vertical Diffusivity */
(PID.TID 0000.0001)    24 @  1.000000000000000E-06              /* K =  1: 24 */
(PID.TID 0000.0001)     ;
(PID.TID 0000.0001) PTRACERS_useGMRedi = /* apply GM-Redi */
(PID.TID 0000.0001)                   F
(PID.TID 0000.0001)     ;
(PID.TID 0000.0001) PTRACERS_useDWNSLP = /* apply DOWN-SLOPE Flow */
(PID.TID 0000.0001)                   F
(PID.TID 0000.0001)     ;
(PID.TID 0000.0001) PTRACERS_useKPP = /* apply KPP scheme */
(PID.TID 0000.0001)                   T
(PID.TID 0000.0001)     ;
(PID.TID 0000.0001) PTRACERS_ref = /* Reference vertical profile */
(PID.TID 0000.0001)    24 @  0.000000000000000E+00              /* K =  1: 24 */
(PID.TID 0000.0001)     ;
(PID.TID 0000.0001) PTRACERS_EvPrRn =/* tracer conc. in Evap. & Rain */
(PID.TID 0000.0001)                 1.234567000000000E+05
(PID.TID 0000.0001)     ;
(PID.TID 0000.0001)  -----------------------------------
(PID.TID 0000.0001)  tracer number :   91
(PID.TID 0000.0001) PTRACERS_ioLabel = /* tracer IO Label */
(PID.TID 0000.0001)               '91'
(PID.TID 0000.0001)     ;
(PID.TID 0000.0001) PTRACERS_advScheme = /* Advection Scheme */
(PID.TID 0000.0001)                      33
(PID.TID 0000.0001)     ;
(PID.TID 0000.0001) PTRACERS_ImplVertAdv = /* implicit vert. advection flag */
(PID.TID 0000.0001)                   F
(PID.TID 0000.0001)     ;
(PID.TID 0000.0001) PTRACERS_diffKh = /* Laplacian Diffusivity */
(PID.TID 0000.0001)                 0.000000000000000E+00
(PID.TID 0000.0001)     ;
(PID.TID 0000.0001) PTRACERS_diffK4 = /* Biharmonic Diffusivity */
(PID.TID 0000.0001)                 0.000000000000000E+00
(PID.TID 0000.0001)     ;
(PID.TID 0000.0001) PTRACERS_diffKrNr = /* Vertical Diffusivity */
(PID.TID 0000.0001)    24 @  1.000000000000000E-06              /* K =  1: 24 */
(PID.TID 0000.0001)     ;
(PID.TID 0000.0001) PTRACERS_useGMRedi = /* apply GM-Redi */
(PID.TID 0000.0001)                   F
(PID.TID 0000.0001)     ;
(PID.TID 0000.0001) PTRACERS_useDWNSLP = /* apply DOWN-SLOPE Flow */
(PID.TID 0000.0001)                   F
(PID.TID 0000.0001)     ;
(PID.TID 0000.0001) PTRACERS_useKPP = /* apply KPP scheme */
(PID.TID 0000.0001)                   T
(PID.TID 0000.0001)     ;
(PID.TID 0000.0001) PTRACERS_ref = /* Reference vertical profile */
(PID.TID 0000.0001)    24 @  0.000000000000000E+00              /* K =  1: 24 */
(PID.TID 0000.0001)     ;
(PID.TID 0000.0001) PTRACERS_EvPrRn =/* tracer conc. in Evap. & Rain */
(PID.TID 0000.0001)                 1.234567000000000E+05
(PID.TID 0000.0001)     ;
(PID.TID 0000.0001)  -----------------------------------
(PID.TID 0000.0001)  tracer number :   92
(PID.TID 0000.0001) PTRACERS_ioLabel = /* tracer IO Label */
(PID.TID 0000.0001)               '92'
(PID.TID 0000.0001)     ;
(PID.TID 0000.0001) PTRACERS_advScheme = /* Advection Scheme */
(PID.TID 0000.0001)                      33
(PID.TID 0000.0001)     ;
(PID.TID 0000.0001) PTRACERS_ImplVertAdv = /* implicit vert. advection flag */
(PID.TID 0000.0001)                   F
(PID.TID 0000.0001)     ;
(PID.TID 0000.0001) PTRACERS_diffKh = /* Laplacian Diffusivity */
(PID.TID 0000.0001)                 0.000000000000000E+00
(PID.TID 0000.0001)     ;
(PID.TID 0000.0001) PTRACERS_diffK4 = /* Biharmonic Diffusivity */
(PID.TID 0000.0001)                 0.000000000000000E+00
(PID.TID 0000.0001)     ;
(PID.TID 0000.0001) PTRACERS_diffKrNr = /* Vertical Diffusivity */
(PID.TID 0000.0001)    24 @  1.000000000000000E-06              /* K =  1: 24 */
(PID.TID 0000.0001)     ;
(PID.TID 0000.0001) PTRACERS_useGMRedi = /* apply GM-Redi */
(PID.TID 0000.0001)                   F
(PID.TID 0000.0001)     ;
(PID.TID 0000.0001) PTRACERS_useDWNSLP = /* apply DOWN-SLOPE Flow */
(PID.TID 0000.0001)                   F
(PID.TID 0000.0001)     ;
(PID.TID 0000.0001) PTRACERS_useKPP = /* apply KPP scheme */
(PID.TID 0000.0001)                   T
(PID.TID 0000.0001)     ;
(PID.TID 0000.0001) PTRACERS_ref = /* Reference vertical profile */
(PID.TID 0000.0001)    24 @  0.000000000000000E+00              /* K =  1: 24 */
(PID.TID 0000.0001)     ;
(PID.TID 0000.0001) PTRACERS_EvPrRn =/* tracer conc. in Evap. & Rain */
(PID.TID 0000.0001)                 1.234567000000000E+05
(PID.TID 0000.0001)     ;
(PID.TID 0000.0001)  -----------------------------------
(PID.TID 0000.0001)  tracer number :   93
(PID.TID 0000.0001) PTRACERS_ioLabel = /* tracer IO Label */
(PID.TID 0000.0001)               '93'
(PID.TID 0000.0001)     ;
(PID.TID 0000.0001) PTRACERS_advScheme = /* Advection Scheme */
(PID.TID 0000.0001)                      33
(PID.TID 0000.0001)     ;
(PID.TID 0000.0001) PTRACERS_ImplVertAdv = /* implicit vert. advection flag */
(PID.TID 0000.0001)                   F
(PID.TID 0000.0001)     ;
(PID.TID 0000.0001) PTRACERS_diffKh = /* Laplacian Diffusivity */
(PID.TID 0000.0001)                 0.000000000000000E+00
(PID.TID 0000.0001)     ;
(PID.TID 0000.0001) PTRACERS_diffK4 = /* Biharmonic Diffusivity */
(PID.TID 0000.0001)                 0.000000000000000E+00
(PID.TID 0000.0001)     ;
(PID.TID 0000.0001) PTRACERS_diffKrNr = /* Vertical Diffusivity */
(PID.TID 0000.0001)    24 @  1.000000000000000E-06              /* K =  1: 24 */
(PID.TID 0000.0001)     ;
(PID.TID 0000.0001) PTRACERS_useGMRedi = /* apply GM-Redi */
(PID.TID 0000.0001)                   F
(PID.TID 0000.0001)     ;
(PID.TID 0000.0001) PTRACERS_useDWNSLP = /* apply DOWN-SLOPE Flow */
(PID.TID 0000.0001)                   F
(PID.TID 0000.0001)     ;
(PID.TID 0000.0001) PTRACERS_useKPP = /* apply KPP scheme */
(PID.TID 0000.0001)                   T
(PID.TID 0000.0001)     ;
(PID.TID 0000.0001) PTRACERS_ref = /* Reference vertical profile */
(PID.TID 0000.0001)    24 @  0.000000000000000E+00              /* K =  1: 24 */
(PID.TID 0000.0001)     ;
(PID.TID 0000.0001) PTRACERS_EvPrRn =/* tracer conc. in Evap. & Rain */
(PID.TID 0000.0001)                 1.234567000000000E+05
(PID.TID 0000.0001)     ;
(PID.TID 0000.0001)  -----------------------------------
(PID.TID 0000.0001)  tracer number :   94
(PID.TID 0000.0001) PTRACERS_ioLabel = /* tracer IO Label */
(PID.TID 0000.0001)               '94'
(PID.TID 0000.0001)     ;
(PID.TID 0000.0001) PTRACERS_advScheme = /* Advection Scheme */
(PID.TID 0000.0001)                      33
(PID.TID 0000.0001)     ;
(PID.TID 0000.0001) PTRACERS_ImplVertAdv = /* implicit vert. advection flag */
(PID.TID 0000.0001)                   F
(PID.TID 0000.0001)     ;
(PID.TID 0000.0001) PTRACERS_diffKh = /* Laplacian Diffusivity */
(PID.TID 0000.0001)                 0.000000000000000E+00
(PID.TID 0000.0001)     ;
(PID.TID 0000.0001) PTRACERS_diffK4 = /* Biharmonic Diffusivity */
(PID.TID 0000.0001)                 0.000000000000000E+00
(PID.TID 0000.0001)     ;
(PID.TID 0000.0001) PTRACERS_diffKrNr = /* Vertical Diffusivity */
(PID.TID 0000.0001)    24 @  1.000000000000000E-06              /* K =  1: 24 */
(PID.TID 0000.0001)     ;
(PID.TID 0000.0001) PTRACERS_useGMRedi = /* apply GM-Redi */
(PID.TID 0000.0001)                   F
(PID.TID 0000.0001)     ;
(PID.TID 0000.0001) PTRACERS_useDWNSLP = /* apply DOWN-SLOPE Flow */
(PID.TID 0000.0001)                   F
(PID.TID 0000.0001)     ;
(PID.TID 0000.0001) PTRACERS_useKPP = /* apply KPP scheme */
(PID.TID 0000.0001)                   T
(PID.TID 0000.0001)     ;
(PID.TID 0000.0001) PTRACERS_ref = /* Reference vertical profile */
(PID.TID 0000.0001)    24 @  0.000000000000000E+00              /* K =  1: 24 */
(PID.TID 0000.0001)     ;
(PID.TID 0000.0001) PTRACERS_EvPrRn =/* tracer conc. in Evap. & Rain */
(PID.TID 0000.0001)                 1.234567000000000E+05
(PID.TID 0000.0001)     ;
(PID.TID 0000.0001)  -----------------------------------
(PID.TID 0000.0001)  tracer number :   95
(PID.TID 0000.0001) PTRACERS_ioLabel = /* tracer IO Label */
(PID.TID 0000.0001)               '95'
(PID.TID 0000.0001)     ;
(PID.TID 0000.0001) PTRACERS_advScheme = /* Advection Scheme */
(PID.TID 0000.0001)                      33
(PID.TID 0000.0001)     ;
(PID.TID 0000.0001) PTRACERS_ImplVertAdv = /* implicit vert. advection flag */
(PID.TID 0000.0001)                   F
(PID.TID 0000.0001)     ;
(PID.TID 0000.0001) PTRACERS_diffKh = /* Laplacian Diffusivity */
(PID.TID 0000.0001)                 0.000000000000000E+00
(PID.TID 0000.0001)     ;
(PID.TID 0000.0001) PTRACERS_diffK4 = /* Biharmonic Diffusivity */
(PID.TID 0000.0001)                 0.000000000000000E+00
(PID.TID 0000.0001)     ;
(PID.TID 0000.0001) PTRACERS_diffKrNr = /* Vertical Diffusivity */
(PID.TID 0000.0001)    24 @  1.000000000000000E-06              /* K =  1: 24 */
(PID.TID 0000.0001)     ;
(PID.TID 0000.0001) PTRACERS_useGMRedi = /* apply GM-Redi */
(PID.TID 0000.0001)                   F
(PID.TID 0000.0001)     ;
(PID.TID 0000.0001) PTRACERS_useDWNSLP = /* apply DOWN-SLOPE Flow */
(PID.TID 0000.0001)                   F
(PID.TID 0000.0001)     ;
(PID.TID 0000.0001) PTRACERS_useKPP = /* apply KPP scheme */
(PID.TID 0000.0001)                   T
(PID.TID 0000.0001)     ;
(PID.TID 0000.0001) PTRACERS_ref = /* Reference vertical profile */
(PID.TID 0000.0001)    24 @  0.000000000000000E+00              /* K =  1: 24 */
(PID.TID 0000.0001)     ;
(PID.TID 0000.0001) PTRACERS_EvPrRn =/* tracer conc. in Evap. & Rain */
(PID.TID 0000.0001)                 1.234567000000000E+05
(PID.TID 0000.0001)     ;
(PID.TID 0000.0001)  -----------------------------------
(PID.TID 0000.0001)  tracer number :   96
(PID.TID 0000.0001) PTRACERS_ioLabel = /* tracer IO Label */
(PID.TID 0000.0001)               '96'
(PID.TID 0000.0001)     ;
(PID.TID 0000.0001) PTRACERS_advScheme = /* Advection Scheme */
(PID.TID 0000.0001)                      33
(PID.TID 0000.0001)     ;
(PID.TID 0000.0001) PTRACERS_ImplVertAdv = /* implicit vert. advection flag */
(PID.TID 0000.0001)                   F
(PID.TID 0000.0001)     ;
(PID.TID 0000.0001) PTRACERS_diffKh = /* Laplacian Diffusivity */
(PID.TID 0000.0001)                 0.000000000000000E+00
(PID.TID 0000.0001)     ;
(PID.TID 0000.0001) PTRACERS_diffK4 = /* Biharmonic Diffusivity */
(PID.TID 0000.0001)                 0.000000000000000E+00
(PID.TID 0000.0001)     ;
(PID.TID 0000.0001) PTRACERS_diffKrNr = /* Vertical Diffusivity */
(PID.TID 0000.0001)    24 @  1.000000000000000E-06              /* K =  1: 24 */
(PID.TID 0000.0001)     ;
(PID.TID 0000.0001) PTRACERS_useGMRedi = /* apply GM-Redi */
(PID.TID 0000.0001)                   F
(PID.TID 0000.0001)     ;
(PID.TID 0000.0001) PTRACERS_useDWNSLP = /* apply DOWN-SLOPE Flow */
(PID.TID 0000.0001)                   F
(PID.TID 0000.0001)     ;
(PID.TID 0000.0001) PTRACERS_useKPP = /* apply KPP scheme */
(PID.TID 0000.0001)                   T
(PID.TID 0000.0001)     ;
(PID.TID 0000.0001) PTRACERS_ref = /* Reference vertical profile */
(PID.TID 0000.0001)    24 @  0.000000000000000E+00              /* K =  1: 24 */
(PID.TID 0000.0001)     ;
(PID.TID 0000.0001) PTRACERS_EvPrRn =/* tracer conc. in Evap. & Rain */
(PID.TID 0000.0001)                 1.234567000000000E+05
(PID.TID 0000.0001)     ;
(PID.TID 0000.0001)  -----------------------------------
(PID.TID 0000.0001)  tracer number :   97
(PID.TID 0000.0001) PTRACERS_ioLabel = /* tracer IO Label */
(PID.TID 0000.0001)               '97'
(PID.TID 0000.0001)     ;
(PID.TID 0000.0001) PTRACERS_advScheme = /* Advection Scheme */
(PID.TID 0000.0001)                      33
(PID.TID 0000.0001)     ;
(PID.TID 0000.0001) PTRACERS_ImplVertAdv = /* implicit vert. advection flag */
(PID.TID 0000.0001)                   F
(PID.TID 0000.0001)     ;
(PID.TID 0000.0001) PTRACERS_diffKh = /* Laplacian Diffusivity */
(PID.TID 0000.0001)                 0.000000000000000E+00
(PID.TID 0000.0001)     ;
(PID.TID 0000.0001) PTRACERS_diffK4 = /* Biharmonic Diffusivity */
(PID.TID 0000.0001)                 0.000000000000000E+00
(PID.TID 0000.0001)     ;
(PID.TID 0000.0001) PTRACERS_diffKrNr = /* Vertical Diffusivity */
(PID.TID 0000.0001)    24 @  1.000000000000000E-06              /* K =  1: 24 */
(PID.TID 0000.0001)     ;
(PID.TID 0000.0001) PTRACERS_useGMRedi = /* apply GM-Redi */
(PID.TID 0000.0001)                   F
(PID.TID 0000.0001)     ;
(PID.TID 0000.0001) PTRACERS_useDWNSLP = /* apply DOWN-SLOPE Flow */
(PID.TID 0000.0001)                   F
(PID.TID 0000.0001)     ;
(PID.TID 0000.0001) PTRACERS_useKPP = /* apply KPP scheme */
(PID.TID 0000.0001)                   T
(PID.TID 0000.0001)     ;
(PID.TID 0000.0001) PTRACERS_ref = /* Reference vertical profile */
(PID.TID 0000.0001)    24 @  0.000000000000000E+00              /* K =  1: 24 */
(PID.TID 0000.0001)     ;
(PID.TID 0000.0001) PTRACERS_EvPrRn =/* tracer conc. in Evap. & Rain */
(PID.TID 0000.0001)                 1.234567000000000E+05
(PID.TID 0000.0001)     ;
(PID.TID 0000.0001)  -----------------------------------
(PID.TID 0000.0001)  tracer number :   98
(PID.TID 0000.0001) PTRACERS_ioLabel = /* tracer IO Label */
(PID.TID 0000.0001)               '98'
(PID.TID 0000.0001)     ;
(PID.TID 0000.0001) PTRACERS_advScheme = /* Advection Scheme */
(PID.TID 0000.0001)                      33
(PID.TID 0000.0001)     ;
(PID.TID 0000.0001) PTRACERS_ImplVertAdv = /* implicit vert. advection flag */
(PID.TID 0000.0001)                   F
(PID.TID 0000.0001)     ;
(PID.TID 0000.0001) PTRACERS_diffKh = /* Laplacian Diffusivity */
(PID.TID 0000.0001)                 0.000000000000000E+00
(PID.TID 0000.0001)     ;
(PID.TID 0000.0001) PTRACERS_diffK4 = /* Biharmonic Diffusivity */
(PID.TID 0000.0001)                 0.000000000000000E+00
(PID.TID 0000.0001)     ;
(PID.TID 0000.0001) PTRACERS_diffKrNr = /* Vertical Diffusivity */
(PID.TID 0000.0001)    24 @  1.000000000000000E-06              /* K =  1: 24 */
(PID.TID 0000.0001)     ;
(PID.TID 0000.0001) PTRACERS_useGMRedi = /* apply GM-Redi */
(PID.TID 0000.0001)                   F
(PID.TID 0000.0001)     ;
(PID.TID 0000.0001) PTRACERS_useDWNSLP = /* apply DOWN-SLOPE Flow */
(PID.TID 0000.0001)                   F
(PID.TID 0000.0001)     ;
(PID.TID 0000.0001) PTRACERS_useKPP = /* apply KPP scheme */
(PID.TID 0000.0001)                   T
(PID.TID 0000.0001)     ;
(PID.TID 0000.0001) PTRACERS_ref = /* Reference vertical profile */
(PID.TID 0000.0001)    24 @  0.000000000000000E+00              /* K =  1: 24 */
(PID.TID 0000.0001)     ;
(PID.TID 0000.0001) PTRACERS_EvPrRn =/* tracer conc. in Evap. & Rain */
(PID.TID 0000.0001)                 1.234567000000000E+05
(PID.TID 0000.0001)     ;
(PID.TID 0000.0001)  -----------------------------------
(PID.TID 0000.0001)  tracer number :   99
(PID.TID 0000.0001) PTRACERS_ioLabel = /* tracer IO Label */
(PID.TID 0000.0001)               '99'
(PID.TID 0000.0001)     ;
(PID.TID 0000.0001) PTRACERS_advScheme = /* Advection Scheme */
(PID.TID 0000.0001)                      33
(PID.TID 0000.0001)     ;
(PID.TID 0000.0001) PTRACERS_ImplVertAdv = /* implicit vert. advection flag */
(PID.TID 0000.0001)                   F
(PID.TID 0000.0001)     ;
(PID.TID 0000.0001) PTRACERS_diffKh = /* Laplacian Diffusivity */
(PID.TID 0000.0001)                 0.000000000000000E+00
(PID.TID 0000.0001)     ;
(PID.TID 0000.0001) PTRACERS_diffK4 = /* Biharmonic Diffusivity */
(PID.TID 0000.0001)                 0.000000000000000E+00
(PID.TID 0000.0001)     ;
(PID.TID 0000.0001) PTRACERS_diffKrNr = /* Vertical Diffusivity */
(PID.TID 0000.0001)    24 @  1.000000000000000E-06              /* K =  1: 24 */
(PID.TID 0000.0001)     ;
(PID.TID 0000.0001) PTRACERS_useGMRedi = /* apply GM-Redi */
(PID.TID 0000.0001)                   F
(PID.TID 0000.0001)     ;
(PID.TID 0000.0001) PTRACERS_useDWNSLP = /* apply DOWN-SLOPE Flow */
(PID.TID 0000.0001)                   F
(PID.TID 0000.0001)     ;
(PID.TID 0000.0001) PTRACERS_useKPP = /* apply KPP scheme */
(PID.TID 0000.0001)                   T
(PID.TID 0000.0001)     ;
(PID.TID 0000.0001) PTRACERS_ref = /* Reference vertical profile */
(PID.TID 0000.0001)    24 @  0.000000000000000E+00              /* K =  1: 24 */
(PID.TID 0000.0001)     ;
(PID.TID 0000.0001) PTRACERS_EvPrRn =/* tracer conc. in Evap. & Rain */
(PID.TID 0000.0001)                 1.234567000000000E+05
(PID.TID 0000.0001)     ;
(PID.TID 0000.0001)  -----------------------------------
(PID.TID 0000.0001)  GCHEM_READPARMS: opening data.gchem
(PID.TID 0000.0001)  OPEN_COPY_DATA_FILE: opening file data.gchem
(PID.TID 0000.0001) // =======================================================
(PID.TID 0000.0001) // Parameter file "data.gchem"
(PID.TID 0000.0001) // =======================================================
(PID.TID 0000.0001) > &GCHEM_PARM01
(PID.TID 0000.0001) > useDARWIN=.TRUE.,
(PID.TID 0000.0001) > nsubtime=1,
(PID.TID 0000.0001) ># now set in data.darwin
(PID.TID 0000.0001) >#gchem_ForcingPeriod=2592000.,
(PID.TID 0000.0001) >#gchem_ForcingCycle=31104000.,
(PID.TID 0000.0001) > /
(PID.TID 0000.0001) 
(PID.TID 0000.0001)  GCHEM_READPARMS: finished reading data.gchem
(PID.TID 0000.0001)  DARWIN_READPARMS: opening data.darwin
(PID.TID 0000.0001)  OPEN_COPY_DATA_FILE: opening file data.darwin
(PID.TID 0000.0001) // =======================================================
(PID.TID 0000.0001) // Parameter file "data.darwin"
(PID.TID 0000.0001) // =======================================================
(PID.TID 0000.0001) > &DARWIN_FORCING
(PID.TID 0000.0001) >#darwin_iceFile='darwin/nasa_icefraction_mth-2d.bin',
(PID.TID 0000.0001) > darwin_ironFile='Fe_const_76x72_12.bin',
(PID.TID 0000.0001) >#darwin_PARFile='darwin/par_ecco.bin_mth-2d.bin',
(PID.TID 0000.0001) >#darwin_nutWVelFile='',
(PID.TID 0000.0001) > darwin_forcingPeriod=2592000.,
(PID.TID 0000.0001) > darwin_forcingCycle=31104000.,
(PID.TID 0000.0001) > darwin_seed=11231,
(PID.TID 0000.0001) > /
(PID.TID 0000.0001) 
(PID.TID 0000.0001)  DARWIN_READPARMS: finished reading data.darwin
(PID.TID 0000.0001) EXF_READPARMS: opening data.exf
(PID.TID 0000.0001)  OPEN_COPY_DATA_FILE: opening file data.exf
(PID.TID 0000.0001) // =======================================================
(PID.TID 0000.0001) // Parameter file "data.exf"
(PID.TID 0000.0001) // =======================================================
(PID.TID 0000.0001) ># *********************
(PID.TID 0000.0001) ># External Forcing Data
(PID.TID 0000.0001) ># *********************
(PID.TID 0000.0001) >#
(PID.TID 0000.0001) > &EXF_NML_01
(PID.TID 0000.0001) > exf_albedo        = 0.15,
(PID.TID 0000.0001) > exf_iprec         = 32,
(PID.TID 0000.0001) > exf_yftype        = 'RL',
(PID.TID 0000.0001) > useExfYearlyFields= .TRUE.,
(PID.TID 0000.0001) > twoDigitYear      = .TRUE.,
(PID.TID 0000.0001) > useExfCheckRange  = .FALSE.,
(PID.TID 0000.0001) > /
(PID.TID 0000.0001) >#
(PID.TID 0000.0001) > &EXF_NML_02
(PID.TID 0000.0001) > atempfile         = 'RG_tmp2m',
(PID.TID 0000.0001) > aqhfile           = 'RG_spfh2m',
(PID.TID 0000.0001) > precipfile        = 'RG_rain',
(PID.TID 0000.0001) > runofffile        = 'runoff-360x180x12.bin',
(PID.TID 0000.0001) > uwindfile         = 'RG_u10m',
(PID.TID 0000.0001) > vwindfile         = 'RG_v10m',
(PID.TID 0000.0001) > swdownfile        = 'RG_dsw',
(PID.TID 0000.0001) > lwdownfile        = 'RG_dlw',
(PID.TID 0000.0001) > climsssfile       = 'LEV01_SSS_360x180x12.bin',
(PID.TID 0000.0001) >#
(PID.TID 0000.0001) > atempstartdate1   = 19990301,
(PID.TID 0000.0001) > atempstartdate2   = 120000,
(PID.TID 0000.0001) > atempperiod       = 21600.0,
(PID.TID 0000.0001) >#
(PID.TID 0000.0001) > aqhstartdate1     = 19990301,
(PID.TID 0000.0001) > aqhstartdate2     = 120000,
(PID.TID 0000.0001) > aqhperiod         = 21600.0,
(PID.TID 0000.0001) >#
(PID.TID 0000.0001) > precipstartdate1  = 19990301,
(PID.TID 0000.0001) > precipstartdate2  = 120000,
(PID.TID 0000.0001) > precipperiod      = 21600.0,
(PID.TID 0000.0001) >#
(PID.TID 0000.0001) > runoffperiod      = -12.,
(PID.TID 0000.0001) >#
(PID.TID 0000.0001) > uwindstartdate1   = 19990301,
(PID.TID 0000.0001) > uwindstartdate2   = 120000,
(PID.TID 0000.0001) > uwindperiod       = 21600.0,
(PID.TID 0000.0001) >#
(PID.TID 0000.0001) > vwindstartdate1   = 19990301,
(PID.TID 0000.0001) > vwindstartdate2   = 120000,
(PID.TID 0000.0001) > vwindperiod       = 21600.0,
(PID.TID 0000.0001) >#
(PID.TID 0000.0001) > swdownstartdate1  = 19990301,
(PID.TID 0000.0001) > swdownstartdate2  = 090000,
(PID.TID 0000.0001) > swdownperiod      = 21600.0,
(PID.TID 0000.0001) >#
(PID.TID 0000.0001) > lwdownstartdate1  = 19990301,
(PID.TID 0000.0001) > lwdownstartdate2  = 090000,
(PID.TID 0000.0001) > lwdownperiod      = 21600.0,
(PID.TID 0000.0001) >#
(PID.TID 0000.0001) > climsssperiod     = -12.,
(PID.TID 0000.0001) > /
(PID.TID 0000.0001) >#
(PID.TID 0000.0001) > &EXF_NML_03
(PID.TID 0000.0001) > exf_offset_atemp  = 273.3971,
(PID.TID 0000.0001) > exf_inscal_runoff = 3.1710e-08,
(PID.TID 0000.0001) > /
(PID.TID 0000.0001) >#
(PID.TID 0000.0001) > &EXF_NML_04
(PID.TID 0000.0001) > atemp_lon0        = 0.00D0,
(PID.TID 0000.0001) > atemp_lon_inc     = 1.875D0,
(PID.TID 0000.0001) > atemp_lat0        = -88.5420D0,
(PID.TID 0000.0001) > atemp_lat_inc     = 1.8888, 1.9000, 1.9024, 1.9034, 1.9039, 1.9042,
(PID.TID 0000.0001) >     1.9042, 1.9044, 1.9045, 1.9045, 1.9046, 1.9046, 1.9046, 1.9046,
(PID.TID 0000.0001) >     1.9047, 1.9046, 1.9047, 1.9047, 1.9047, 1.9047, 1.9047, 1.9047,
(PID.TID 0000.0001) >     1.9047, 1.9047, 1.9047, 1.9047, 1.9048, 1.9047, 1.9047, 1.9047,
(PID.TID 0000.0001) >     1.9047, 1.9048, 1.9047, 1.9047, 1.9048, 1.9047, 1.9047, 1.9048,
(PID.TID 0000.0001) >     1.9047, 1.9047, 1.9048, 1.9047, 1.9047, 1.9048, 1.9047, 1.9047,
(PID.TID 0000.0001) >     1.9048, 1.9047, 1.9047, 1.9048, 1.9047, 1.9047, 1.9048, 1.9047,
(PID.TID 0000.0001) >     1.9047, 1.9048, 1.9047, 1.9047, 1.9048, 1.9047, 1.9047, 1.9048,
(PID.TID 0000.0001) >     1.9047, 1.9047, 1.9047, 1.9047, 1.9048, 1.9047, 1.9047, 1.9047,
(PID.TID 0000.0001) >     1.9047, 1.9047, 1.9047, 1.9047, 1.9047, 1.9047, 1.9047, 1.9046,
(PID.TID 0000.0001) >     1.9047, 1.9046, 1.9046, 1.9046, 1.9046, 1.9045, 1.9045, 1.9044,
(PID.TID 0000.0001) >     1.9042, 1.9042, 1.9039, 1.9034, 1.9024, 1.9000, 1.8888, 1.8888,
(PID.TID 0000.0001) > atemp_nlon        = 192,
(PID.TID 0000.0001) > atemp_nlat        = 94,
(PID.TID 0000.0001) >#
(PID.TID 0000.0001) > aqh_lon0          = 0.00D0,
(PID.TID 0000.0001) > aqh_lon_inc       = 1.875D0,
(PID.TID 0000.0001) > aqh_lat0          = -88.5420D0,
(PID.TID 0000.0001) > aqh_lat_inc       = 1.8888, 1.9000, 1.9024, 1.9034, 1.9039, 1.9042,
(PID.TID 0000.0001) >     1.9042, 1.9044, 1.9045, 1.9045, 1.9046, 1.9046, 1.9046, 1.9046,
(PID.TID 0000.0001) >     1.9047, 1.9046, 1.9047, 1.9047, 1.9047, 1.9047, 1.9047, 1.9047,
(PID.TID 0000.0001) >     1.9047, 1.9047, 1.9047, 1.9047, 1.9048, 1.9047, 1.9047, 1.9047,
(PID.TID 0000.0001) >     1.9047, 1.9048, 1.9047, 1.9047, 1.9048, 1.9047, 1.9047, 1.9048,
(PID.TID 0000.0001) >     1.9047, 1.9047, 1.9048, 1.9047, 1.9047, 1.9048, 1.9047, 1.9047,
(PID.TID 0000.0001) >     1.9048, 1.9047, 1.9047, 1.9048, 1.9047, 1.9047, 1.9048, 1.9047,
(PID.TID 0000.0001) >     1.9047, 1.9048, 1.9047, 1.9047, 1.9048, 1.9047, 1.9047, 1.9048,
(PID.TID 0000.0001) >     1.9047, 1.9047, 1.9047, 1.9047, 1.9048, 1.9047, 1.9047, 1.9047,
(PID.TID 0000.0001) >     1.9047, 1.9047, 1.9047, 1.9047, 1.9047, 1.9047, 1.9047, 1.9046,
(PID.TID 0000.0001) >     1.9047, 1.9046, 1.9046, 1.9046, 1.9046, 1.9045, 1.9045, 1.9044,
(PID.TID 0000.0001) >     1.9042, 1.9042, 1.9039, 1.9034, 1.9024, 1.9000, 1.8888, 1.8888,
(PID.TID 0000.0001) > aqh_nlon          = 192,
(PID.TID 0000.0001) > aqh_nlat          = 94,
(PID.TID 0000.0001) >#
(PID.TID 0000.0001) > precip_lon0       = 0.00D0,
(PID.TID 0000.0001) > precip_lon_inc    = 1.875D0,
(PID.TID 0000.0001) > precip_lat0       = -88.5420D0,
(PID.TID 0000.0001) > precip_lat_inc    = 1.8888, 1.9000, 1.9024, 1.9034, 1.9039, 1.9042,
(PID.TID 0000.0001) >     1.9042, 1.9044, 1.9045, 1.9045, 1.9046, 1.9046, 1.9046, 1.9046,
(PID.TID 0000.0001) >     1.9047, 1.9046, 1.9047, 1.9047, 1.9047, 1.9047, 1.9047, 1.9047,
(PID.TID 0000.0001) >     1.9047, 1.9047, 1.9047, 1.9047, 1.9048, 1.9047, 1.9047, 1.9047,
(PID.TID 0000.0001) >     1.9047, 1.9048, 1.9047, 1.9047, 1.9048, 1.9047, 1.9047, 1.9048,
(PID.TID 0000.0001) >     1.9047, 1.9047, 1.9048, 1.9047, 1.9047, 1.9048, 1.9047, 1.9047,
(PID.TID 0000.0001) >     1.9048, 1.9047, 1.9047, 1.9048, 1.9047, 1.9047, 1.9048, 1.9047,
(PID.TID 0000.0001) >     1.9047, 1.9048, 1.9047, 1.9047, 1.9048, 1.9047, 1.9047, 1.9048,
(PID.TID 0000.0001) >     1.9047, 1.9047, 1.9047, 1.9047, 1.9048, 1.9047, 1.9047, 1.9047,
(PID.TID 0000.0001) >     1.9047, 1.9047, 1.9047, 1.9047, 1.9047, 1.9047, 1.9047, 1.9046,
(PID.TID 0000.0001) >     1.9047, 1.9046, 1.9046, 1.9046, 1.9046, 1.9045, 1.9045, 1.9044,
(PID.TID 0000.0001) >     1.9042, 1.9042, 1.9039, 1.9034, 1.9024, 1.9000, 1.8888, 1.8888,
(PID.TID 0000.0001) > precip_nlon       = 192,
(PID.TID 0000.0001) > precip_nlat       = 94,
(PID.TID 0000.0001) >#
(PID.TID 0000.0001) > runoff_lon0       = 0.50D0,
(PID.TID 0000.0001) > runoff_lon_inc    = 1.0D0,
(PID.TID 0000.0001) > runoff_lat0       = -89.5D0,
(PID.TID 0000.0001) > runoff_lat_inc    = 179*1.,
(PID.TID 0000.0001) > runoff_nlon       = 360,
(PID.TID 0000.0001) > runoff_nlat       = 180,
(PID.TID 0000.0001) >#
(PID.TID 0000.0001) > uwind_lon0        = 0.00D0,
(PID.TID 0000.0001) > uwind_lon_inc     = 1.875D0,
(PID.TID 0000.0001) > uwind_lat0        = -88.5420D0,
(PID.TID 0000.0001) > uwind_lat_inc     = 1.8888, 1.9000, 1.9024, 1.9034, 1.9039, 1.9042,
(PID.TID 0000.0001) >     1.9042, 1.9044, 1.9045, 1.9045, 1.9046, 1.9046, 1.9046, 1.9046,
(PID.TID 0000.0001) >     1.9047, 1.9046, 1.9047, 1.9047, 1.9047, 1.9047, 1.9047, 1.9047,
(PID.TID 0000.0001) >     1.9047, 1.9047, 1.9047, 1.9047, 1.9048, 1.9047, 1.9047, 1.9047,
(PID.TID 0000.0001) >     1.9047, 1.9048, 1.9047, 1.9047, 1.9048, 1.9047, 1.9047, 1.9048,
(PID.TID 0000.0001) >     1.9047, 1.9047, 1.9048, 1.9047, 1.9047, 1.9048, 1.9047, 1.9047,
(PID.TID 0000.0001) >     1.9048, 1.9047, 1.9047, 1.9048, 1.9047, 1.9047, 1.9048, 1.9047,
(PID.TID 0000.0001) >     1.9047, 1.9048, 1.9047, 1.9047, 1.9048, 1.9047, 1.9047, 1.9048,
(PID.TID 0000.0001) >     1.9047, 1.9047, 1.9047, 1.9047, 1.9048, 1.9047, 1.9047, 1.9047,
(PID.TID 0000.0001) >     1.9047, 1.9047, 1.9047, 1.9047, 1.9047, 1.9047, 1.9047, 1.9046,
(PID.TID 0000.0001) >     1.9047, 1.9046, 1.9046, 1.9046, 1.9046, 1.9045, 1.9045, 1.9044,
(PID.TID 0000.0001) >     1.9042, 1.9042, 1.9039, 1.9034, 1.9024, 1.9000, 1.8888, 1.8888,
(PID.TID 0000.0001) > uwind_nlon        = 192,
(PID.TID 0000.0001) > uwind_nlat        = 94,
(PID.TID 0000.0001) >#
(PID.TID 0000.0001) > vwind_lon0        = 0.00D0,
(PID.TID 0000.0001) > vwind_lon_inc     = 1.875D0,
(PID.TID 0000.0001) > vwind_lat0        = -88.5420D0,
(PID.TID 0000.0001) > vwind_lat_inc     = 1.8888, 1.9000, 1.9024, 1.9034, 1.9039, 1.9042,
(PID.TID 0000.0001) >     1.9042, 1.9044, 1.9045, 1.9045, 1.9046, 1.9046, 1.9046, 1.9046,
(PID.TID 0000.0001) >     1.9047, 1.9046, 1.9047, 1.9047, 1.9047, 1.9047, 1.9047, 1.9047,
(PID.TID 0000.0001) >     1.9047, 1.9047, 1.9047, 1.9047, 1.9048, 1.9047, 1.9047, 1.9047,
(PID.TID 0000.0001) >     1.9047, 1.9048, 1.9047, 1.9047, 1.9048, 1.9047, 1.9047, 1.9048,
(PID.TID 0000.0001) >     1.9047, 1.9047, 1.9048, 1.9047, 1.9047, 1.9048, 1.9047, 1.9047,
(PID.TID 0000.0001) >     1.9048, 1.9047, 1.9047, 1.9048, 1.9047, 1.9047, 1.9048, 1.9047,
(PID.TID 0000.0001) >     1.9047, 1.9048, 1.9047, 1.9047, 1.9048, 1.9047, 1.9047, 1.9048,
(PID.TID 0000.0001) >     1.9047, 1.9047, 1.9047, 1.9047, 1.9048, 1.9047, 1.9047, 1.9047,
(PID.TID 0000.0001) >     1.9047, 1.9047, 1.9047, 1.9047, 1.9047, 1.9047, 1.9047, 1.9046,
(PID.TID 0000.0001) >     1.9047, 1.9046, 1.9046, 1.9046, 1.9046, 1.9045, 1.9045, 1.9044,
(PID.TID 0000.0001) >     1.9042, 1.9042, 1.9039, 1.9034, 1.9024, 1.9000, 1.8888, 1.8888,
(PID.TID 0000.0001) > vwind_nlon        = 192,
(PID.TID 0000.0001) > vwind_nlat        = 94,
(PID.TID 0000.0001) >#
(PID.TID 0000.0001) > swdown_lon0       = 0.00D0,
(PID.TID 0000.0001) > swdown_lon_inc    = 1.875D0,
(PID.TID 0000.0001) > swdown_lat0       = -88.5420D0,
(PID.TID 0000.0001) > swdown_lat_inc    = 1.8888, 1.9000, 1.9024, 1.9034, 1.9039, 1.9042,
(PID.TID 0000.0001) >     1.9042, 1.9044, 1.9045, 1.9045, 1.9046, 1.9046, 1.9046, 1.9046,
(PID.TID 0000.0001) >     1.9047, 1.9046, 1.9047, 1.9047, 1.9047, 1.9047, 1.9047, 1.9047,
(PID.TID 0000.0001) >     1.9047, 1.9047, 1.9047, 1.9047, 1.9048, 1.9047, 1.9047, 1.9047,
(PID.TID 0000.0001) >     1.9047, 1.9048, 1.9047, 1.9047, 1.9048, 1.9047, 1.9047, 1.9048,
(PID.TID 0000.0001) >     1.9047, 1.9047, 1.9048, 1.9047, 1.9047, 1.9048, 1.9047, 1.9047,
(PID.TID 0000.0001) >     1.9048, 1.9047, 1.9047, 1.9048, 1.9047, 1.9047, 1.9048, 1.9047,
(PID.TID 0000.0001) >     1.9047, 1.9048, 1.9047, 1.9047, 1.9048, 1.9047, 1.9047, 1.9048,
(PID.TID 0000.0001) >     1.9047, 1.9047, 1.9047, 1.9047, 1.9048, 1.9047, 1.9047, 1.9047,
(PID.TID 0000.0001) >     1.9047, 1.9047, 1.9047, 1.9047, 1.9047, 1.9047, 1.9047, 1.9046,
(PID.TID 0000.0001) >     1.9047, 1.9046, 1.9046, 1.9046, 1.9046, 1.9045, 1.9045, 1.9044,
(PID.TID 0000.0001) >     1.9042, 1.9042, 1.9039, 1.9034, 1.9024, 1.9000, 1.8888, 1.8888,
(PID.TID 0000.0001) > swdown_nlon       = 192,
(PID.TID 0000.0001) > swdown_nlat       = 94,
(PID.TID 0000.0001) >#
(PID.TID 0000.0001) > lwdown_lon0       = 0.00D0,
(PID.TID 0000.0001) > lwdown_lon_inc    = 1.875D0,
(PID.TID 0000.0001) > lwdown_lat0       = -88.5420D0,
(PID.TID 0000.0001) > lwdown_lat_inc    = 1.8888, 1.9000, 1.9024, 1.9034, 1.9039, 1.9042,
(PID.TID 0000.0001) >     1.9042, 1.9044, 1.9045, 1.9045, 1.9046, 1.9046, 1.9046, 1.9046,
(PID.TID 0000.0001) >     1.9047, 1.9046, 1.9047, 1.9047, 1.9047, 1.9047, 1.9047, 1.9047,
(PID.TID 0000.0001) >     1.9047, 1.9047, 1.9047, 1.9047, 1.9048, 1.9047, 1.9047, 1.9047,
(PID.TID 0000.0001) >     1.9047, 1.9048, 1.9047, 1.9047, 1.9048, 1.9047, 1.9047, 1.9048,
(PID.TID 0000.0001) >     1.9047, 1.9047, 1.9048, 1.9047, 1.9047, 1.9048, 1.9047, 1.9047,
(PID.TID 0000.0001) >     1.9048, 1.9047, 1.9047, 1.9048, 1.9047, 1.9047, 1.9048, 1.9047,
(PID.TID 0000.0001) >     1.9047, 1.9048, 1.9047, 1.9047, 1.9048, 1.9047, 1.9047, 1.9048,
(PID.TID 0000.0001) >     1.9047, 1.9047, 1.9047, 1.9047, 1.9048, 1.9047, 1.9047, 1.9047,
(PID.TID 0000.0001) >     1.9047, 1.9047, 1.9047, 1.9047, 1.9047, 1.9047, 1.9047, 1.9046,
(PID.TID 0000.0001) >     1.9047, 1.9046, 1.9046, 1.9046, 1.9046, 1.9045, 1.9045, 1.9044,
(PID.TID 0000.0001) >     1.9042, 1.9042, 1.9039, 1.9034, 1.9024, 1.9000, 1.8888, 1.8888,
(PID.TID 0000.0001) > lwdown_nlon       = 192,
(PID.TID 0000.0001) > lwdown_nlat       = 94,
(PID.TID 0000.0001) >#
(PID.TID 0000.0001) > climsss_lon0      = 0.5,
(PID.TID 0000.0001) > climsss_lon_inc   = 1.,
(PID.TID 0000.0001) > climsss_lat0      = -89.5,
(PID.TID 0000.0001) > climsss_lat_inc   = 179*1.,
(PID.TID 0000.0001) > climsss_nlon      = 360,
(PID.TID 0000.0001) > climsss_nlat      = 180,
(PID.TID 0000.0001) > /
(PID.TID 0000.0001) >#
(PID.TID 0000.0001) > &EXF_NML_OBCS
(PID.TID 0000.0001) > obcsNstartdate1   = 19990219,
(PID.TID 0000.0001) > obcsNstartdate2   = 060000,
(PID.TID 0000.0001) > obcsNperiod       = 2635200.0,
(PID.TID 0000.0001) >#
(PID.TID 0000.0001) > obcsEstartdate1   = 19990219,
(PID.TID 0000.0001) > obcsEstartdate2   = 060000,
(PID.TID 0000.0001) > obcsEperiod       = 2635200.0,
(PID.TID 0000.0001) >#
(PID.TID 0000.0001) > obcsWstartdate1   = 19990219,
(PID.TID 0000.0001) > obcsWstartdate2   = 060000,
(PID.TID 0000.0001) > obcsWperiod       = 2635200.0,
(PID.TID 0000.0001) > /
(PID.TID 0000.0001) 
(PID.TID 0000.0001) EXF_READPARMS: reading EXF_NML_01
(PID.TID 0000.0001) EXF_READPARMS: reading EXF_NML_02
(PID.TID 0000.0001) EXF_READPARMS: reading EXF_NML_03
(PID.TID 0000.0001) EXF_READPARMS: reading EXF_NML_04
(PID.TID 0000.0001) EXF_READPARMS: reading EXF_NML_OBCS
(PID.TID 0000.0001) EXF_READPARMS: finished reading data.exf
(PID.TID 0000.0001)  DIAGNOSTICS_READPARMS: opening data.diagnostics
(PID.TID 0000.0001)  OPEN_COPY_DATA_FILE: opening file data.diagnostics
(PID.TID 0000.0001) // =======================================================
(PID.TID 0000.0001) // Parameter file "data.diagnostics"
(PID.TID 0000.0001) // =======================================================
(PID.TID 0000.0001) ># Darwin diagnostics
(PID.TID 0000.0001) ># ==================
(PID.TID 0000.0001) ># PAR                 Photosynthetically active radiation
(PID.TID 0000.0001) ># PP                  Primary production
(PID.TID 0000.0001) ># Nfix                Nitrogen fixation
(PID.TID 0000.0001) ># Rstar01             Rstar^PO4 of Phy01
(PID.TID 0000.0001) ># Diver1              # Phy species over absolute threshold'
(PID.TID 0000.0001) ># Diver2              # Phy species over threshold for proportion of biomass'
(PID.TID 0000.0001) ># Diver3              # Phy species constituting bulk of biomass'
(PID.TID 0000.0001) ># Diver4              # Phy species over threshold for ratio to maximum species'
(PID.TID 0000.0001) >#
(PID.TID 0000.0001) > &diagnostics_list
(PID.TID 0000.0001) >#
(PID.TID 0000.0001) >  frequency(1) = 86400.,
(PID.TID 0000.0001) >   fields(1,1) = 'THETA   ',
(PID.TID 0000.0001) >   filename(1) = 'THETA_day',
(PID.TID 0000.0001) >  frequency(2) = 86400.,
(PID.TID 0000.0001) >   fields(1,2) = 'SALTanom',
(PID.TID 0000.0001) >   filename(2) = 'SALTanom_day',
(PID.TID 0000.0001) >  frequency(3) = 86400.,
(PID.TID 0000.0001) >   fields(1,3) = 'SIarea  ',
(PID.TID 0000.0001) >   filename(3) = 'SIarea_day',
(PID.TID 0000.0001) >  frequency(4) = 86400.,
(PID.TID 0000.0001) >   fields(1,4) = 'SIheff  ',
(PID.TID 0000.0001) >   filename(4) = 'SIheff_day',
(PID.TID 0000.0001) >  frequency(5) = 86400.,
(PID.TID 0000.0001) >   fields(1,5) = 'SIhsnow ',
(PID.TID 0000.0001) >   filename(5) = 'SIhsnow_day',
(PID.TID 0000.0001) >  frequency(6) = 86400.,
(PID.TID 0000.0001) >   fields(1,6) = 'SIqsw   ',
(PID.TID 0000.0001) >   filename(6) = 'SIqsw_day',
(PID.TID 0000.0001) >#
(PID.TID 0000.0001) >   frequency(7) = -86400.,
(PID.TID 0000.0001) >   timePhase(7) = 0.,
(PID.TID 0000.0001) >    fields(1,7) = 'SIarea  ',
(PID.TID 0000.0001) >    filename(7) = 'SIarea',
(PID.TID 0000.0001) >   frequency(8) = -86400.,
(PID.TID 0000.0001) >   timePhase(8) = 0.,
(PID.TID 0000.0001) >    fields(1,8) = 'SIheff  ',
(PID.TID 0000.0001) >    filename(8) = 'SIheff',
(PID.TID 0000.0001) >   frequency(9) = -86400.,
(PID.TID 0000.0001) >   timePhase(9) = 0.,
(PID.TID 0000.0001) >    fields(1,9) = 'SIhsnow ',
(PID.TID 0000.0001) >    filename(9) = 'SIhsnow',
(PID.TID 0000.0001) >   frequency(10) = -86400.,
(PID.TID 0000.0001) >   timePhase(10) = 0.,
(PID.TID 0000.0001) >    fields(1,10) = 'SIqsw   ',
(PID.TID 0000.0001) >    filename(10) = 'SIqsw',
(PID.TID 0000.0001) >#
(PID.TID 0000.0001) >  frequency(11) = 86400.,
(PID.TID 0000.0001) >   fields(1,11) = 'PAR     ',
(PID.TID 0000.0001) >   filename(11) = 'PAR_day',
(PID.TID 0000.0001) >  frequency(12) = 86400.,
(PID.TID 0000.0001) >   fields(1,12) = 'PP      ',
(PID.TID 0000.0001) >   filename(12) = 'PP_day',
(PID.TID 0000.0001) >  frequency(13) = 86400.,
(PID.TID 0000.0001) >   fields(1,13) = 'Nfix    ',
(PID.TID 0000.0001) >   filename(13) = 'Nfix_day',
(PID.TID 0000.0001) >#
(PID.TID 0000.0001) >  frequency(14) = -86400.,
(PID.TID 0000.0001) >  timePhase(14) = 0.,
(PID.TID 0000.0001) >   fields(1,14) = 'PAR     ',
(PID.TID 0000.0001) >   filename(14) = 'PAR',
(PID.TID 0000.0001) >  frequency(15) = -86400.,
(PID.TID 0000.0001) >  timePhase(15) = 0.,
(PID.TID 0000.0001) >   fields(1,15) = 'PP      ',
(PID.TID 0000.0001) >   filename(15) = 'PP',
(PID.TID 0000.0001) >  frequency(16) = -86400.,
(PID.TID 0000.0001) >  timePhase(16) = 0.,
(PID.TID 0000.0001) >   fields(1,16) = 'Nfix    ',
(PID.TID 0000.0001) >   filename(16) = 'Nfix',
(PID.TID 0000.0001) >#
(PID.TID 0000.0001) >  frequency(17) = 86400.,
(PID.TID 0000.0001) >   fields(1,17) = 'TRAC01  ',
(PID.TID 0000.0001) >   filename(17) = 'PO4_day',
(PID.TID 0000.0001) >  frequency(18) = 86400.,
(PID.TID 0000.0001) >   fields(1,18) = 'TRAC02  ',
(PID.TID 0000.0001) >   filename(18) = 'NO3_day',
(PID.TID 0000.0001) >  frequency(19) = 86400.,
(PID.TID 0000.0001) >   fields(1,19) = 'TRAC03  ',
(PID.TID 0000.0001) >   filename(19) = 'FeT_day',
(PID.TID 0000.0001) >  frequency(20) = 86400.,
(PID.TID 0000.0001) >   fields(1,20) = 'TRAC04  ',
(PID.TID 0000.0001) >   filename(20) = 'SiO2_day',
(PID.TID 0000.0001) >  frequency(21) = 86400.,
(PID.TID 0000.0001) >   fields(1,21) = 'TRAC05  ',
(PID.TID 0000.0001) >   filename(21) = 'DOP_day',
(PID.TID 0000.0001) >  frequency(22) = 86400.,
(PID.TID 0000.0001) >   fields(1,22) = 'TRAC06  ',
(PID.TID 0000.0001) >   filename(22) = 'DON_day',
(PID.TID 0000.0001) >  frequency(23) = 86400.,
(PID.TID 0000.0001) >   fields(1,23) = 'TRAC07  ',
(PID.TID 0000.0001) >   filename(23) = 'DOFe_day',
(PID.TID 0000.0001) >  frequency(24) = 86400.,
(PID.TID 0000.0001) >   fields(1,24) = 'TRAC08  ',
(PID.TID 0000.0001) >   filename(24) = 'ZOO1P_day',
(PID.TID 0000.0001) >  frequency(25) = 86400.,
(PID.TID 0000.0001) >   fields(1,25) = 'TRAC09  ',
(PID.TID 0000.0001) >   filename(25) = 'ZOO1N_day',
(PID.TID 0000.0001) >  frequency(26) = 86400.,
(PID.TID 0000.0001) >   fields(1,26) = 'TRAC10  ',
(PID.TID 0000.0001) >   filename(26) = 'ZOO1Fe_day',
(PID.TID 0000.0001) >  frequency(27) = 86400.,
(PID.TID 0000.0001) >   fields(1,27) = 'TRAC11  ',
(PID.TID 0000.0001) >   filename(27) = 'ZOO1Si_day',
(PID.TID 0000.0001) >  frequency(28) = 86400.,
(PID.TID 0000.0001) >   fields(1,28) = 'TRAC12  ',
(PID.TID 0000.0001) >   filename(28) = 'ZOO2P_day',
(PID.TID 0000.0001) >  frequency(29) = 86400.,
(PID.TID 0000.0001) >   fields(1,29) = 'TRAC13  ',
(PID.TID 0000.0001) >   filename(29) = 'ZOO2N_day',
(PID.TID 0000.0001) >  frequency(30) = 86400.,
(PID.TID 0000.0001) >   fields(1,30) = 'TRAC14  ',
(PID.TID 0000.0001) >   filename(30) = 'ZOO2Fe_day',
(PID.TID 0000.0001) >  frequency(31) = 86400.,
(PID.TID 0000.0001) >   fields(1,31) = 'TRAC15  ',
(PID.TID 0000.0001) >   filename(31) = 'ZOO2Si_day',
(PID.TID 0000.0001) >  frequency(32) = 86400.,
(PID.TID 0000.0001) >   fields(1,32) = 'TRAC16  ',
(PID.TID 0000.0001) >   filename(32) = 'POP_day',
(PID.TID 0000.0001) >  frequency(33) = 86400.,
(PID.TID 0000.0001) >   fields(1,33) = 'TRAC17  ',
(PID.TID 0000.0001) >   filename(33) = 'PON_day',
(PID.TID 0000.0001) >  frequency(34) = 86400.,
(PID.TID 0000.0001) >   fields(1,34) = 'TRAC18  ',
(PID.TID 0000.0001) >   filename(34) = 'POFe_day',
(PID.TID 0000.0001) >  frequency(35) = 86400.,
(PID.TID 0000.0001) >   fields(1,35) = 'TRAC19  ',
(PID.TID 0000.0001) >   filename(35) = 'POSi_day',
(PID.TID 0000.0001) >  frequency(36) = 86400.,
(PID.TID 0000.0001) >   fields(1,36) = 'TRAC20  ',
(PID.TID 0000.0001) >   filename(36) = 'NH4_day',
(PID.TID 0000.0001) >  frequency(37) = 86400.,
(PID.TID 0000.0001) >   fields(1,37) = 'TRAC21  ',
(PID.TID 0000.0001) >   filename(37) = 'NO2_day',
(PID.TID 0000.0001) >  frequency(38) = 86400.,
(PID.TID 0000.0001) >   fields(1,38) = 'TRAC22  ',
(PID.TID 0000.0001) >   filename(38) = 'Phy01_day',
(PID.TID 0000.0001) >  frequency(39) = 86400.,
(PID.TID 0000.0001) >   fields(1,39) = 'TRAC23  ',
(PID.TID 0000.0001) >   filename(39) = 'Phy02_day',
(PID.TID 0000.0001) >  frequency(40) = 86400.,
(PID.TID 0000.0001) >   fields(1,40) = 'TRAC24  ',
(PID.TID 0000.0001) >   filename(40) = 'Phy03_day',
(PID.TID 0000.0001) >  frequency(41) = 86400.,
(PID.TID 0000.0001) >   fields(1,41) = 'TRAC25  ',
(PID.TID 0000.0001) >   filename(41) = 'Phy04_day',
(PID.TID 0000.0001) >  frequency(42) = 86400.,
(PID.TID 0000.0001) >   fields(1,42) = 'TRAC26  ',
(PID.TID 0000.0001) >   filename(42) = 'Phy05_day',
(PID.TID 0000.0001) >  frequency(43) = 86400.,
(PID.TID 0000.0001) >   fields(1,43) = 'TRAC27  ',
(PID.TID 0000.0001) >   filename(43) = 'Phy06_day',
(PID.TID 0000.0001) >  frequency(44) = 86400.,
(PID.TID 0000.0001) >   fields(1,44) = 'TRAC28  ',
(PID.TID 0000.0001) >   filename(44) = 'Phy07_day',
(PID.TID 0000.0001) >  frequency(45) = 86400.,
(PID.TID 0000.0001) >   fields(1,45) = 'TRAC29  ',
(PID.TID 0000.0001) >   filename(45) = 'Phy08_day',
(PID.TID 0000.0001) >  frequency(46) = 86400.,
(PID.TID 0000.0001) >   fields(1,46) = 'TRAC30  ',
(PID.TID 0000.0001) >   filename(46) = 'Phy09_day',
(PID.TID 0000.0001) >  frequency(47) = 86400.,
(PID.TID 0000.0001) >   fields(1,47) = 'TRAC31  ',
(PID.TID 0000.0001) >   filename(47) = 'Phy10_day',
(PID.TID 0000.0001) >  frequency(48) = 86400.,
(PID.TID 0000.0001) >   fields(1,48) = 'TRAC32  ',
(PID.TID 0000.0001) >   filename(48) = 'Phy11_day',
(PID.TID 0000.0001) >  frequency(49) = 86400.,
(PID.TID 0000.0001) >   fields(1,49) = 'TRAC33  ',
(PID.TID 0000.0001) >   filename(49) = 'Phy12_day',
(PID.TID 0000.0001) >  frequency(50) = 86400.,
(PID.TID 0000.0001) >   fields(1,50) = 'TRAC34  ',
(PID.TID 0000.0001) >   filename(50) = 'Phy13_day',
(PID.TID 0000.0001) >  frequency(51) = 86400.,
(PID.TID 0000.0001) >   fields(1,51) = 'TRAC35  ',
(PID.TID 0000.0001) >   filename(51) = 'Phy14_day',
(PID.TID 0000.0001) >  frequency(52) = 86400.,
(PID.TID 0000.0001) >   fields(1,52) = 'TRAC36  ',
(PID.TID 0000.0001) >   filename(52) = 'Phy15_day',
(PID.TID 0000.0001) >  frequency(53) = 86400.,
(PID.TID 0000.0001) >   fields(1,53) = 'TRAC37  ',
(PID.TID 0000.0001) >   filename(53) = 'Phy16_day',
(PID.TID 0000.0001) >  frequency(54) = 86400.,
(PID.TID 0000.0001) >   fields(1,54) = 'TRAC38  ',
(PID.TID 0000.0001) >   filename(54) = 'Phy17_day',
(PID.TID 0000.0001) >  frequency(55) = 86400.,
(PID.TID 0000.0001) >   fields(1,55) = 'TRAC39  ',
(PID.TID 0000.0001) >   filename(55) = 'Phy18_day',
(PID.TID 0000.0001) >  frequency(56) = 86400.,
(PID.TID 0000.0001) >   fields(1,56) = 'TRAC40  ',
(PID.TID 0000.0001) >   filename(56) = 'Phy19_day',
(PID.TID 0000.0001) >  frequency(57) = 86400.,
(PID.TID 0000.0001) >   fields(1,57) = 'TRAC41  ',
(PID.TID 0000.0001) >   filename(57) = 'Phy20_day',
(PID.TID 0000.0001) >  frequency(58) = 86400.,
(PID.TID 0000.0001) >   fields(1,58) = 'TRAC42  ',
(PID.TID 0000.0001) >   filename(58) = 'Phy21_day',
(PID.TID 0000.0001) >  frequency(59) = 86400.,
(PID.TID 0000.0001) >   fields(1,59) = 'TRAC43  ',
(PID.TID 0000.0001) >   filename(59) = 'Phy22_day',
(PID.TID 0000.0001) >  frequency(60) = 86400.,
(PID.TID 0000.0001) >   fields(1,60) = 'TRAC44  ',
(PID.TID 0000.0001) >   filename(60) = 'Phy23_day',
(PID.TID 0000.0001) >  frequency(61) = 86400.,
(PID.TID 0000.0001) >   fields(1,61) = 'TRAC45  ',
(PID.TID 0000.0001) >   filename(61) = 'Phy24_day',
(PID.TID 0000.0001) >  frequency(62) = 86400.,
(PID.TID 0000.0001) >   fields(1,62) = 'TRAC46  ',
(PID.TID 0000.0001) >   filename(62) = 'Phy25_day',
(PID.TID 0000.0001) >  frequency(63) = 86400.,
(PID.TID 0000.0001) >   fields(1,63) = 'TRAC47  ',
(PID.TID 0000.0001) >   filename(63) = 'Phy26_day',
(PID.TID 0000.0001) >  frequency(64) = 86400.,
(PID.TID 0000.0001) >   fields(1,64) = 'TRAC48  ',
(PID.TID 0000.0001) >   filename(64) = 'Phy27_day',
(PID.TID 0000.0001) >  frequency(65) = 86400.,
(PID.TID 0000.0001) >   fields(1,65) = 'TRAC49  ',
(PID.TID 0000.0001) >   filename(65) = 'Phy28_day',
(PID.TID 0000.0001) >  frequency(66) = 86400.,
(PID.TID 0000.0001) >   fields(1,66) = 'TRAC50  ',
(PID.TID 0000.0001) >   filename(66) = 'Phy29_day',
(PID.TID 0000.0001) >  frequency(67) = 86400.,
(PID.TID 0000.0001) >   fields(1,67) = 'TRAC51  ',
(PID.TID 0000.0001) >   filename(67) = 'Phy30_day',
(PID.TID 0000.0001) >  frequency(68) = 86400.,
(PID.TID 0000.0001) >   fields(1,68) = 'TRAC52  ',
(PID.TID 0000.0001) >   filename(68) = 'Phy31_day',
(PID.TID 0000.0001) >  frequency(69) = 86400.,
(PID.TID 0000.0001) >   fields(1,69) = 'TRAC53  ',
(PID.TID 0000.0001) >   filename(69) = 'Phy32_day',
(PID.TID 0000.0001) >  frequency(70) = 86400.,
(PID.TID 0000.0001) >   fields(1,70) = 'TRAC54  ',
(PID.TID 0000.0001) >   filename(70) = 'Phy33_day',
(PID.TID 0000.0001) >  frequency(71) = 86400.,
(PID.TID 0000.0001) >   fields(1,71) = 'TRAC55  ',
(PID.TID 0000.0001) >   filename(71) = 'Phy34_day',
(PID.TID 0000.0001) >  frequency(72) = 86400.,
(PID.TID 0000.0001) >   fields(1,72) = 'TRAC56  ',
(PID.TID 0000.0001) >   filename(72) = 'Phy35_day',
(PID.TID 0000.0001) >  frequency(73) = 86400.,
(PID.TID 0000.0001) >   fields(1,73) = 'TRAC57  ',
(PID.TID 0000.0001) >   filename(73) = 'Phy36_day',
(PID.TID 0000.0001) >  frequency(74) = 86400.,
(PID.TID 0000.0001) >   fields(1,74) = 'TRAC58  ',
(PID.TID 0000.0001) >   filename(74) = 'Phy37_day',
(PID.TID 0000.0001) >  frequency(75) = 86400.,
(PID.TID 0000.0001) >   fields(1,75) = 'TRAC59  ',
(PID.TID 0000.0001) >   filename(75) = 'Phy38_day',
(PID.TID 0000.0001) >  frequency(76) = 86400.,
(PID.TID 0000.0001) >   fields(1,76) = 'TRAC60  ',
(PID.TID 0000.0001) >   filename(76) = 'Phy39_day',
(PID.TID 0000.0001) >  frequency(77) = 86400.,
(PID.TID 0000.0001) >   fields(1,77) = 'TRAC61  ',
(PID.TID 0000.0001) >   filename(77) = 'Phy40_day',
(PID.TID 0000.0001) >  frequency(78) = 86400.,
(PID.TID 0000.0001) >   fields(1,78) = 'TRAC62  ',
(PID.TID 0000.0001) >   filename(78) = 'Phy41_day',
(PID.TID 0000.0001) >  frequency(79) = 86400.,
(PID.TID 0000.0001) >   fields(1,79) = 'TRAC63  ',
(PID.TID 0000.0001) >   filename(79) = 'Phy42_day',
(PID.TID 0000.0001) >  frequency(80) = 86400.,
(PID.TID 0000.0001) >   fields(1,80) = 'TRAC64  ',
(PID.TID 0000.0001) >   filename(80) = 'Phy43_day',
(PID.TID 0000.0001) >  frequency(81) = 86400.,
(PID.TID 0000.0001) >   fields(1,81) = 'TRAC65  ',
(PID.TID 0000.0001) >   filename(81) = 'Phy44_day',
(PID.TID 0000.0001) >  frequency(82) = 86400.,
(PID.TID 0000.0001) >   fields(1,82) = 'TRAC66  ',
(PID.TID 0000.0001) >   filename(82) = 'Phy45_day',
(PID.TID 0000.0001) >  frequency(83) = 86400.,
(PID.TID 0000.0001) >   fields(1,83) = 'TRAC67  ',
(PID.TID 0000.0001) >   filename(83) = 'Phy46_day',
(PID.TID 0000.0001) >  frequency(84) = 86400.,
(PID.TID 0000.0001) >   fields(1,84) = 'TRAC68  ',
(PID.TID 0000.0001) >   filename(84) = 'Phy47_day',
(PID.TID 0000.0001) >  frequency(85) = 86400.,
(PID.TID 0000.0001) >   fields(1,85) = 'TRAC69  ',
(PID.TID 0000.0001) >   filename(85) = 'Phy48_day',
(PID.TID 0000.0001) >  frequency(86) = 86400.,
(PID.TID 0000.0001) >   fields(1,86) = 'TRAC70  ',
(PID.TID 0000.0001) >   filename(86) = 'Phy49_day',
(PID.TID 0000.0001) >  frequency(87) = 86400.,
(PID.TID 0000.0001) >   fields(1,87) = 'TRAC71  ',
(PID.TID 0000.0001) >   filename(87) = 'Phy50_day',
(PID.TID 0000.0001) >  frequency(88) = 86400.,
(PID.TID 0000.0001) >   fields(1,88) = 'TRAC72  ',
(PID.TID 0000.0001) >   filename(88) = 'Phy51_day',
(PID.TID 0000.0001) >  frequency(89) = 86400.,
(PID.TID 0000.0001) >   fields(1,89) = 'TRAC73  ',
(PID.TID 0000.0001) >   filename(89) = 'Phy52_day',
(PID.TID 0000.0001) >  frequency(90) = 86400.,
(PID.TID 0000.0001) >   fields(1,90) = 'TRAC74  ',
(PID.TID 0000.0001) >   filename(90) = 'Phy53_day',
(PID.TID 0000.0001) >  frequency(91) = 86400.,
(PID.TID 0000.0001) >   fields(1,91) = 'TRAC75  ',
(PID.TID 0000.0001) >   filename(91) = 'Phy54_day',
(PID.TID 0000.0001) >  frequency(92) = 86400.,
(PID.TID 0000.0001) >   fields(1,92) = 'TRAC76  ',
(PID.TID 0000.0001) >   filename(92) = 'Phy55_day',
(PID.TID 0000.0001) >  frequency(93) = 86400.,
(PID.TID 0000.0001) >   fields(1,93) = 'TRAC77  ',
(PID.TID 0000.0001) >   filename(93) = 'Phy56_day',
(PID.TID 0000.0001) >  frequency(94) = 86400.,
(PID.TID 0000.0001) >   fields(1,94) = 'TRAC78  ',
(PID.TID 0000.0001) >   filename(94) = 'Phy57_day',
(PID.TID 0000.0001) >  frequency(95) = 86400.,
(PID.TID 0000.0001) >   fields(1,95) = 'TRAC79  ',
(PID.TID 0000.0001) >   filename(95) = 'Phy58_day',
(PID.TID 0000.0001) >  frequency(96) = 86400.,
(PID.TID 0000.0001) >   fields(1,96) = 'TRAC80  ',
(PID.TID 0000.0001) >   filename(96) = 'Phy59_day',
(PID.TID 0000.0001) >  frequency(97) = 86400.,
(PID.TID 0000.0001) >   fields(1,97) = 'TRAC81  ',
(PID.TID 0000.0001) >   filename(97) = 'Phy60_day',
(PID.TID 0000.0001) >  frequency(98) = 86400.,
(PID.TID 0000.0001) >   fields(1,98) = 'TRAC82  ',
(PID.TID 0000.0001) >   filename(98) = 'Phy61_day',
(PID.TID 0000.0001) >  frequency(99) = 86400.,
(PID.TID 0000.0001) >   fields(1,99) = 'TRAC83  ',
(PID.TID 0000.0001) >   filename(99) = 'Phy62_day',
(PID.TID 0000.0001) >  frequency(100) = 86400.,
(PID.TID 0000.0001) >   fields(1,100) = 'TRAC84  ',
(PID.TID 0000.0001) >   filename(100) = 'Phy63_day',
(PID.TID 0000.0001) >  frequency(101) = 86400.,
(PID.TID 0000.0001) >   fields(1,101) = 'TRAC85  ',
(PID.TID 0000.0001) >   filename(101) = 'Phy64_day',
(PID.TID 0000.0001) >  frequency(102) = 86400.,
(PID.TID 0000.0001) >   fields(1,102) = 'TRAC86  ',
(PID.TID 0000.0001) >   filename(102) = 'Phy65_day',
(PID.TID 0000.0001) >  frequency(103) = 86400.,
(PID.TID 0000.0001) >   fields(1,103) = 'TRAC87  ',
(PID.TID 0000.0001) >   filename(103) = 'Phy66_day',
(PID.TID 0000.0001) >  frequency(104) = 86400.,
(PID.TID 0000.0001) >   fields(1,104) = 'TRAC88  ',
(PID.TID 0000.0001) >   filename(104) = 'Phy67_day',
(PID.TID 0000.0001) >  frequency(105) = 86400.,
(PID.TID 0000.0001) >   fields(1,105) = 'TRAC89  ',
(PID.TID 0000.0001) >   filename(105) = 'Phy68_day',
(PID.TID 0000.0001) >  frequency(106) = 86400.,
(PID.TID 0000.0001) >   fields(1,106) = 'TRAC90  ',
(PID.TID 0000.0001) >   filename(106) = 'Phy69_day',
(PID.TID 0000.0001) >  frequency(107) = 86400.,
(PID.TID 0000.0001) >   fields(1,107) = 'TRAC91  ',
(PID.TID 0000.0001) >   filename(107) = 'Phy70_day',
(PID.TID 0000.0001) >  frequency(108) = 86400.,
(PID.TID 0000.0001) >   fields(1,108) = 'TRAC92  ',
(PID.TID 0000.0001) >   filename(108) = 'Phy71_day',
(PID.TID 0000.0001) >  frequency(109) = 86400.,
(PID.TID 0000.0001) >   fields(1,109) = 'TRAC93  ',
(PID.TID 0000.0001) >   filename(109) = 'Phy72_day',
(PID.TID 0000.0001) >  frequency(110) = 86400.,
(PID.TID 0000.0001) >   fields(1,110) = 'TRAC94  ',
(PID.TID 0000.0001) >   filename(110) = 'Phy73_day',
(PID.TID 0000.0001) >  frequency(111) = 86400.,
(PID.TID 0000.0001) >   fields(1,111) = 'TRAC95  ',
(PID.TID 0000.0001) >   filename(111) = 'Phy74_day',
(PID.TID 0000.0001) >  frequency(112) = 86400.,
(PID.TID 0000.0001) >   fields(1,112) = 'TRAC96  ',
(PID.TID 0000.0001) >   filename(112) = 'Phy75_day',
(PID.TID 0000.0001) >  frequency(113) = 86400.,
(PID.TID 0000.0001) >   fields(1,113) = 'TRAC97  ',
(PID.TID 0000.0001) >   filename(113) = 'Phy76_day',
(PID.TID 0000.0001) >  frequency(114) = 86400.,
(PID.TID 0000.0001) >   fields(1,114) = 'TRAC98  ',
(PID.TID 0000.0001) >   filename(114) = 'Phy77_day',
(PID.TID 0000.0001) >  frequency(115) = 86400.,
(PID.TID 0000.0001) >   fields(1,115) = 'TRAC99  ',
(PID.TID 0000.0001) >   filename(115) = 'Phy78_day',
(PID.TID 0000.0001) >#
(PID.TID 0000.0001) >  frequency(116) = -86400.,
(PID.TID 0000.0001) >  timePhase(116) = 0.,
(PID.TID 0000.0001) >   fields(1,116) = 'TRAC01  ',
(PID.TID 0000.0001) >   filename(116) = 'PO4',
(PID.TID 0000.0001) >  frequency(117) = -86400.,
(PID.TID 0000.0001) >  timePhase(117) = 0.,
(PID.TID 0000.0001) >   fields(1,117) = 'TRAC02  ',
(PID.TID 0000.0001) >   filename(117) = 'NO3',
(PID.TID 0000.0001) >  frequency(118) = -86400.,
(PID.TID 0000.0001) >  timePhase(118) = 0.,
(PID.TID 0000.0001) >   fields(1,118) = 'TRAC03  ',
(PID.TID 0000.0001) >   filename(118) = 'FeT',
(PID.TID 0000.0001) >  frequency(119) = -86400.,
(PID.TID 0000.0001) >  timePhase(119) = 0.,
(PID.TID 0000.0001) >   fields(1,119) = 'TRAC04  ',
(PID.TID 0000.0001) >   filename(119) = 'SiO2',
(PID.TID 0000.0001) >  frequency(120) = -86400.,
(PID.TID 0000.0001) >  timePhase(120) = 0.,
(PID.TID 0000.0001) >   fields(1,120) = 'TRAC05  ',
(PID.TID 0000.0001) >   filename(120) = 'DOP',
(PID.TID 0000.0001) >  frequency(121) = -86400.,
(PID.TID 0000.0001) >  timePhase(121) = 0.,
(PID.TID 0000.0001) >   fields(1,121) = 'TRAC06  ',
(PID.TID 0000.0001) >   filename(121) = 'DON',
(PID.TID 0000.0001) >  frequency(122) = -86400.,
(PID.TID 0000.0001) >  timePhase(122) = 0.,
(PID.TID 0000.0001) >   fields(1,122) = 'TRAC07  ',
(PID.TID 0000.0001) >   filename(122) = 'DOFe',
(PID.TID 0000.0001) >  frequency(123) = -86400.,
(PID.TID 0000.0001) >  timePhase(123) = 0.,
(PID.TID 0000.0001) >   fields(1,123) = 'TRAC08  ',
(PID.TID 0000.0001) >   filename(123) = 'ZOO1P',
(PID.TID 0000.0001) >  frequency(124) = -86400.,
(PID.TID 0000.0001) >  timePhase(124) = 0.,
(PID.TID 0000.0001) >   fields(1,124) = 'TRAC09  ',
(PID.TID 0000.0001) >   filename(124) = 'ZOO1N',
(PID.TID 0000.0001) >  frequency(125) = -86400.,
(PID.TID 0000.0001) >  timePhase(125) = 0.,
(PID.TID 0000.0001) >   fields(1,125) = 'TRAC10  ',
(PID.TID 0000.0001) >   filename(125) = 'ZOO1Fe',
(PID.TID 0000.0001) >  frequency(126) = -86400.,
(PID.TID 0000.0001) >  timePhase(126) = 0.,
(PID.TID 0000.0001) >   fields(1,126) = 'TRAC11  ',
(PID.TID 0000.0001) >   filename(126) = 'ZOO1Si',
(PID.TID 0000.0001) >  frequency(127) = -86400.,
(PID.TID 0000.0001) >  timePhase(127) = 0.,
(PID.TID 0000.0001) >   fields(1,127) = 'TRAC12  ',
(PID.TID 0000.0001) >   filename(127) = 'ZOO2P',
(PID.TID 0000.0001) >  frequency(128) = -86400.,
(PID.TID 0000.0001) >  timePhase(128) = 0.,
(PID.TID 0000.0001) >   fields(1,128) = 'TRAC13  ',
(PID.TID 0000.0001) >   filename(128) = 'ZOO2N',
(PID.TID 0000.0001) >  frequency(129) = -86400.,
(PID.TID 0000.0001) >  timePhase(129) = 0.,
(PID.TID 0000.0001) >   fields(1,129) = 'TRAC14  ',
(PID.TID 0000.0001) >   filename(129) = 'ZOO2Fe',
(PID.TID 0000.0001) >  frequency(130) = -86400.,
(PID.TID 0000.0001) >  timePhase(130) = 0.,
(PID.TID 0000.0001) >   fields(1,130) = 'TRAC15  ',
(PID.TID 0000.0001) >   filename(130) = 'ZOO2Si',
(PID.TID 0000.0001) >  frequency(131) = -86400.,
(PID.TID 0000.0001) >  timePhase(131) = 0.,
(PID.TID 0000.0001) >   fields(1,131) = 'TRAC16  ',
(PID.TID 0000.0001) >   filename(131) = 'POP',
(PID.TID 0000.0001) >  frequency(132) = -86400.,
(PID.TID 0000.0001) >  timePhase(132) = 0.,
(PID.TID 0000.0001) >   fields(1,132) = 'TRAC17  ',
(PID.TID 0000.0001) >   filename(132) = 'PON',
(PID.TID 0000.0001) >  frequency(133) = -86400.,
(PID.TID 0000.0001) >  timePhase(133) = 0.,
(PID.TID 0000.0001) >   fields(1,133) = 'TRAC18  ',
(PID.TID 0000.0001) >   filename(133) = 'POFe',
(PID.TID 0000.0001) >  frequency(134) = -86400.,
(PID.TID 0000.0001) >  timePhase(134) = 0.,
(PID.TID 0000.0001) >   fields(1,134) = 'TRAC19  ',
(PID.TID 0000.0001) >   filename(134) = 'POSi',
(PID.TID 0000.0001) >  frequency(135) = -86400.,
(PID.TID 0000.0001) >  timePhase(135) = 0.,
(PID.TID 0000.0001) >   fields(1,135) = 'TRAC20  ',
(PID.TID 0000.0001) >   filename(135) = 'NH4',
(PID.TID 0000.0001) >  frequency(136) = -86400.,
(PID.TID 0000.0001) >  timePhase(136) = 0.,
(PID.TID 0000.0001) >   fields(1,136) = 'TRAC21  ',
(PID.TID 0000.0001) >   filename(136) = 'NO2',
(PID.TID 0000.0001) >  frequency(137) = -86400.,
(PID.TID 0000.0001) >  timePhase(137) = 0.,
(PID.TID 0000.0001) >   fields(1,137) = 'TRAC22  ',
(PID.TID 0000.0001) >   filename(137) = 'Phy01',
(PID.TID 0000.0001) >  frequency(138) = -86400.,
(PID.TID 0000.0001) >  timePhase(138) = 0.,
(PID.TID 0000.0001) >   fields(1,138) = 'TRAC23  ',
(PID.TID 0000.0001) >   filename(138) = 'Phy02',
(PID.TID 0000.0001) >  frequency(139) = -86400.,
(PID.TID 0000.0001) >  timePhase(139) = 0.,
(PID.TID 0000.0001) >   fields(1,139) = 'TRAC24  ',
(PID.TID 0000.0001) >   filename(139) = 'Phy03',
(PID.TID 0000.0001) >  frequency(140) = -86400.,
(PID.TID 0000.0001) >  timePhase(140) = 0.,
(PID.TID 0000.0001) >   fields(1,140) = 'TRAC25  ',
(PID.TID 0000.0001) >   filename(140) = 'Phy04',
(PID.TID 0000.0001) >  frequency(141) = -86400.,
(PID.TID 0000.0001) >  timePhase(141) = 0.,
(PID.TID 0000.0001) >   fields(1,141) = 'TRAC26  ',
(PID.TID 0000.0001) >   filename(141) = 'Phy05',
(PID.TID 0000.0001) >  frequency(142) = -86400.,
(PID.TID 0000.0001) >  timePhase(142) = 0.,
(PID.TID 0000.0001) >   fields(1,142) = 'TRAC27  ',
(PID.TID 0000.0001) >   filename(142) = 'Phy06',
(PID.TID 0000.0001) >  frequency(143) = -86400.,
(PID.TID 0000.0001) >  timePhase(143) = 0.,
(PID.TID 0000.0001) >   fields(1,143) = 'TRAC28  ',
(PID.TID 0000.0001) >   filename(143) = 'Phy07',
(PID.TID 0000.0001) >  frequency(144) = -86400.,
(PID.TID 0000.0001) >  timePhase(144) = 0.,
(PID.TID 0000.0001) >   fields(1,144) = 'TRAC29  ',
(PID.TID 0000.0001) >   filename(144) = 'Phy08',
(PID.TID 0000.0001) >  frequency(145) = -86400.,
(PID.TID 0000.0001) >  timePhase(145) = 0.,
(PID.TID 0000.0001) >   fields(1,145) = 'TRAC30  ',
(PID.TID 0000.0001) >   filename(145) = 'Phy09',
(PID.TID 0000.0001) >  frequency(146) = -86400.,
(PID.TID 0000.0001) >  timePhase(146) = 0.,
(PID.TID 0000.0001) >   fields(1,146) = 'TRAC31  ',
(PID.TID 0000.0001) >   filename(146) = 'Phy10',
(PID.TID 0000.0001) >  frequency(147) = -86400.,
(PID.TID 0000.0001) >  timePhase(147) = 0.,
(PID.TID 0000.0001) >   fields(1,147) = 'TRAC32  ',
(PID.TID 0000.0001) >   filename(147) = 'Phy11',
(PID.TID 0000.0001) >  frequency(148) = -86400.,
(PID.TID 0000.0001) >  timePhase(148) = 0.,
(PID.TID 0000.0001) >   fields(1,148) = 'TRAC33  ',
(PID.TID 0000.0001) >   filename(148) = 'Phy12',
(PID.TID 0000.0001) >  frequency(149) = -86400.,
(PID.TID 0000.0001) >  timePhase(149) = 0.,
(PID.TID 0000.0001) >   fields(1,149) = 'TRAC34  ',
(PID.TID 0000.0001) >   filename(149) = 'Phy13',
(PID.TID 0000.0001) >  frequency(150) = -86400.,
(PID.TID 0000.0001) >  timePhase(150) = 0.,
(PID.TID 0000.0001) >   fields(1,150) = 'TRAC35  ',
(PID.TID 0000.0001) >   filename(150) = 'Phy14',
(PID.TID 0000.0001) >  frequency(151) = -86400.,
(PID.TID 0000.0001) >  timePhase(151) = 0.,
(PID.TID 0000.0001) >   fields(1,151) = 'TRAC36  ',
(PID.TID 0000.0001) >   filename(151) = 'Phy15',
(PID.TID 0000.0001) >  frequency(152) = -86400.,
(PID.TID 0000.0001) >  timePhase(152) = 0.,
(PID.TID 0000.0001) >   fields(1,152) = 'TRAC37  ',
(PID.TID 0000.0001) >   filename(152) = 'Phy16',
(PID.TID 0000.0001) >  frequency(153) = -86400.,
(PID.TID 0000.0001) >  timePhase(153) = 0.,
(PID.TID 0000.0001) >   fields(1,153) = 'TRAC38  ',
(PID.TID 0000.0001) >   filename(153) = 'Phy17',
(PID.TID 0000.0001) >  frequency(154) = -86400.,
(PID.TID 0000.0001) >  timePhase(154) = 0.,
(PID.TID 0000.0001) >   fields(1,154) = 'TRAC39  ',
(PID.TID 0000.0001) >   filename(154) = 'Phy18',
(PID.TID 0000.0001) >  frequency(155) = -86400.,
(PID.TID 0000.0001) >  timePhase(155) = 0.,
(PID.TID 0000.0001) >   fields(1,155) = 'TRAC40  ',
(PID.TID 0000.0001) >   filename(155) = 'Phy19',
(PID.TID 0000.0001) >  frequency(156) = -86400.,
(PID.TID 0000.0001) >  timePhase(156) = 0.,
(PID.TID 0000.0001) >   fields(1,156) = 'TRAC41  ',
(PID.TID 0000.0001) >   filename(156) = 'Phy20',
(PID.TID 0000.0001) >  frequency(157) = -86400.,
(PID.TID 0000.0001) >  timePhase(157) = 0.,
(PID.TID 0000.0001) >   fields(1,157) = 'TRAC42  ',
(PID.TID 0000.0001) >   filename(157) = 'Phy21',
(PID.TID 0000.0001) >  frequency(158) = -86400.,
(PID.TID 0000.0001) >  timePhase(158) = 0.,
(PID.TID 0000.0001) >   fields(1,158) = 'TRAC43  ',
(PID.TID 0000.0001) >   filename(158) = 'Phy22',
(PID.TID 0000.0001) >  frequency(159) = -86400.,
(PID.TID 0000.0001) >  timePhase(159) = 0.,
(PID.TID 0000.0001) >   fields(1,159) = 'TRAC44  ',
(PID.TID 0000.0001) >   filename(159) = 'Phy23',
(PID.TID 0000.0001) >  frequency(160) = -86400.,
(PID.TID 0000.0001) >  timePhase(160) = 0.,
(PID.TID 0000.0001) >   fields(1,160) = 'TRAC45  ',
(PID.TID 0000.0001) >   filename(160) = 'Phy24',
(PID.TID 0000.0001) >  frequency(161) = -86400.,
(PID.TID 0000.0001) >  timePhase(161) = 0.,
(PID.TID 0000.0001) >   fields(1,161) = 'TRAC46  ',
(PID.TID 0000.0001) >   filename(161) = 'Phy25',
(PID.TID 0000.0001) >  frequency(162) = -86400.,
(PID.TID 0000.0001) >  timePhase(162) = 0.,
(PID.TID 0000.0001) >   fields(1,162) = 'TRAC47  ',
(PID.TID 0000.0001) >   filename(162) = 'Phy26',
(PID.TID 0000.0001) >  frequency(163) = -86400.,
(PID.TID 0000.0001) >  timePhase(163) = 0.,
(PID.TID 0000.0001) >   fields(1,163) = 'TRAC48  ',
(PID.TID 0000.0001) >   filename(163) = 'Phy27',
(PID.TID 0000.0001) >  frequency(164) = -86400.,
(PID.TID 0000.0001) >  timePhase(164) = 0.,
(PID.TID 0000.0001) >   fields(1,164) = 'TRAC49  ',
(PID.TID 0000.0001) >   filename(164) = 'Phy28',
(PID.TID 0000.0001) >  frequency(165) = -86400.,
(PID.TID 0000.0001) >  timePhase(165) = 0.,
(PID.TID 0000.0001) >   fields(1,165) = 'TRAC50  ',
(PID.TID 0000.0001) >   filename(165) = 'Phy29',
(PID.TID 0000.0001) >  frequency(166) = -86400.,
(PID.TID 0000.0001) >  timePhase(166) = 0.,
(PID.TID 0000.0001) >   fields(1,166) = 'TRAC51  ',
(PID.TID 0000.0001) >   filename(166) = 'Phy30',
(PID.TID 0000.0001) >  frequency(167) = -86400.,
(PID.TID 0000.0001) >  timePhase(167) = 0.,
(PID.TID 0000.0001) >   fields(1,167) = 'TRAC52  ',
(PID.TID 0000.0001) >   filename(167) = 'Phy31',
(PID.TID 0000.0001) >  frequency(168) = -86400.,
(PID.TID 0000.0001) >  timePhase(168) = 0.,
(PID.TID 0000.0001) >   fields(1,168) = 'TRAC53  ',
(PID.TID 0000.0001) >   filename(168) = 'Phy32',
(PID.TID 0000.0001) >  frequency(169) = -86400.,
(PID.TID 0000.0001) >  timePhase(169) = 0.,
(PID.TID 0000.0001) >   fields(1,169) = 'TRAC54  ',
(PID.TID 0000.0001) >   filename(169) = 'Phy33',
(PID.TID 0000.0001) >  frequency(170) = -86400.,
(PID.TID 0000.0001) >  timePhase(170) = 0.,
(PID.TID 0000.0001) >   fields(1,170) = 'TRAC55  ',
(PID.TID 0000.0001) >   filename(170) = 'Phy34',
(PID.TID 0000.0001) >  frequency(171) = -86400.,
(PID.TID 0000.0001) >  timePhase(171) = 0.,
(PID.TID 0000.0001) >   fields(1,171) = 'TRAC56  ',
(PID.TID 0000.0001) >   filename(171) = 'Phy35',
(PID.TID 0000.0001) >  frequency(172) = -86400.,
(PID.TID 0000.0001) >  timePhase(172) = 0.,
(PID.TID 0000.0001) >   fields(1,172) = 'TRAC57  ',
(PID.TID 0000.0001) >   filename(172) = 'Phy36',
(PID.TID 0000.0001) >  frequency(173) = -86400.,
(PID.TID 0000.0001) >  timePhase(173) = 0.,
(PID.TID 0000.0001) >   fields(1,173) = 'TRAC58  ',
(PID.TID 0000.0001) >   filename(173) = 'Phy37',
(PID.TID 0000.0001) >  frequency(174) = -86400.,
(PID.TID 0000.0001) >  timePhase(174) = 0.,
(PID.TID 0000.0001) >   fields(1,174) = 'TRAC59  ',
(PID.TID 0000.0001) >   filename(174) = 'Phy38',
(PID.TID 0000.0001) >  frequency(175) = -86400.,
(PID.TID 0000.0001) >  timePhase(175) = 0.,
(PID.TID 0000.0001) >   fields(1,175) = 'TRAC60  ',
(PID.TID 0000.0001) >   filename(175) = 'Phy39',
(PID.TID 0000.0001) >  frequency(176) = -86400.,
(PID.TID 0000.0001) >  timePhase(176) = 0.,
(PID.TID 0000.0001) >   fields(1,176) = 'TRAC61  ',
(PID.TID 0000.0001) >   filename(176) = 'Phy40',
(PID.TID 0000.0001) >  frequency(177) = -86400.,
(PID.TID 0000.0001) >  timePhase(177) = 0.,
(PID.TID 0000.0001) >   fields(1,177) = 'TRAC62  ',
(PID.TID 0000.0001) >   filename(177) = 'Phy41',
(PID.TID 0000.0001) >  frequency(178) = -86400.,
(PID.TID 0000.0001) >  timePhase(178) = 0.,
(PID.TID 0000.0001) >   fields(1,178) = 'TRAC63  ',
(PID.TID 0000.0001) >   filename(178) = 'Phy42',
(PID.TID 0000.0001) >  frequency(179) = -86400.,
(PID.TID 0000.0001) >  timePhase(179) = 0.,
(PID.TID 0000.0001) >   fields(1,179) = 'TRAC64  ',
(PID.TID 0000.0001) >   filename(179) = 'Phy43',
(PID.TID 0000.0001) >  frequency(180) = -86400.,
(PID.TID 0000.0001) >  timePhase(180) = 0.,
(PID.TID 0000.0001) >   fields(1,180) = 'TRAC65  ',
(PID.TID 0000.0001) >   filename(180) = 'Phy44',
(PID.TID 0000.0001) >  frequency(181) = -86400.,
(PID.TID 0000.0001) >  timePhase(181) = 0.,
(PID.TID 0000.0001) >   fields(1,181) = 'TRAC66  ',
(PID.TID 0000.0001) >   filename(181) = 'Phy45',
(PID.TID 0000.0001) >  frequency(182) = -86400.,
(PID.TID 0000.0001) >  timePhase(182) = 0.,
(PID.TID 0000.0001) >   fields(1,182) = 'TRAC67  ',
(PID.TID 0000.0001) >   filename(182) = 'Phy46',
(PID.TID 0000.0001) >  frequency(183) = -86400.,
(PID.TID 0000.0001) >  timePhase(183) = 0.,
(PID.TID 0000.0001) >   fields(1,183) = 'TRAC68  ',
(PID.TID 0000.0001) >   filename(183) = 'Phy47',
(PID.TID 0000.0001) >  frequency(184) = -86400.,
(PID.TID 0000.0001) >  timePhase(184) = 0.,
(PID.TID 0000.0001) >   fields(1,184) = 'TRAC69  ',
(PID.TID 0000.0001) >   filename(184) = 'Phy48',
(PID.TID 0000.0001) >  frequency(185) = -86400.,
(PID.TID 0000.0001) >  timePhase(185) = 0.,
(PID.TID 0000.0001) >   fields(1,185) = 'TRAC70  ',
(PID.TID 0000.0001) >   filename(185) = 'Phy49',
(PID.TID 0000.0001) >  frequency(186) = -86400.,
(PID.TID 0000.0001) >  timePhase(186) = 0.,
(PID.TID 0000.0001) >   fields(1,186) = 'TRAC71  ',
(PID.TID 0000.0001) >   filename(186) = 'Phy50',
(PID.TID 0000.0001) >  frequency(187) = -86400.,
(PID.TID 0000.0001) >  timePhase(187) = 0.,
(PID.TID 0000.0001) >   fields(1,187) = 'TRAC72  ',
(PID.TID 0000.0001) >   filename(187) = 'Phy51',
(PID.TID 0000.0001) >  frequency(188) = -86400.,
(PID.TID 0000.0001) >  timePhase(188) = 0.,
(PID.TID 0000.0001) >   fields(1,188) = 'TRAC73  ',
(PID.TID 0000.0001) >   filename(188) = 'Phy52',
(PID.TID 0000.0001) >  frequency(189) = -86400.,
(PID.TID 0000.0001) >  timePhase(189) = 0.,
(PID.TID 0000.0001) >   fields(1,189) = 'TRAC74  ',
(PID.TID 0000.0001) >   filename(189) = 'Phy53',
(PID.TID 0000.0001) >  frequency(190) = -86400.,
(PID.TID 0000.0001) >  timePhase(190) = 0.,
(PID.TID 0000.0001) >   fields(1,190) = 'TRAC75  ',
(PID.TID 0000.0001) >   filename(190) = 'Phy54',
(PID.TID 0000.0001) >  frequency(191) = -86400.,
(PID.TID 0000.0001) >  timePhase(191) = 0.,
(PID.TID 0000.0001) >   fields(1,191) = 'TRAC76  ',
(PID.TID 0000.0001) >   filename(191) = 'Phy55',
(PID.TID 0000.0001) >  frequency(192) = -86400.,
(PID.TID 0000.0001) >  timePhase(192) = 0.,
(PID.TID 0000.0001) >   fields(1,192) = 'TRAC77  ',
(PID.TID 0000.0001) >   filename(192) = 'Phy56',
(PID.TID 0000.0001) >  frequency(193) = -86400.,
(PID.TID 0000.0001) >  timePhase(193) = 0.,
(PID.TID 0000.0001) >   fields(1,193) = 'TRAC78  ',
(PID.TID 0000.0001) >   filename(193) = 'Phy57',
(PID.TID 0000.0001) >  frequency(194) = -86400.,
(PID.TID 0000.0001) >  timePhase(194) = 0.,
(PID.TID 0000.0001) >   fields(1,194) = 'TRAC79  ',
(PID.TID 0000.0001) >   filename(194) = 'Phy58',
(PID.TID 0000.0001) >  frequency(195) = -86400.,
(PID.TID 0000.0001) >  timePhase(195) = 0.,
(PID.TID 0000.0001) >   fields(1,195) = 'TRAC80  ',
(PID.TID 0000.0001) >   filename(195) = 'Phy59',
(PID.TID 0000.0001) >  frequency(196) = -86400.,
(PID.TID 0000.0001) >  timePhase(196) = 0.,
(PID.TID 0000.0001) >   fields(1,196) = 'TRAC81  ',
(PID.TID 0000.0001) >   filename(196) = 'Phy60',
(PID.TID 0000.0001) >  frequency(197) = -86400.,
(PID.TID 0000.0001) >  timePhase(197) = 0.,
(PID.TID 0000.0001) >   fields(1,197) = 'TRAC82  ',
(PID.TID 0000.0001) >   filename(197) = 'Phy61',
(PID.TID 0000.0001) >  frequency(198) = -86400.,
(PID.TID 0000.0001) >  timePhase(198) = 0.,
(PID.TID 0000.0001) >   fields(1,198) = 'TRAC83  ',
(PID.TID 0000.0001) >   filename(198) = 'Phy62',
(PID.TID 0000.0001) >  frequency(199) = -86400.,
(PID.TID 0000.0001) >  timePhase(199) = 0.,
(PID.TID 0000.0001) >   fields(1,199) = 'TRAC84  ',
(PID.TID 0000.0001) >   filename(199) = 'Phy63',
(PID.TID 0000.0001) >  frequency(200) = -86400.,
(PID.TID 0000.0001) >  timePhase(200) = 0.,
(PID.TID 0000.0001) >   fields(1,200) = 'TRAC85  ',
(PID.TID 0000.0001) >   filename(200) = 'Phy64',
(PID.TID 0000.0001) >  frequency(201) = -86400.,
(PID.TID 0000.0001) >  timePhase(201) = 0.,
(PID.TID 0000.0001) >   fields(1,201) = 'TRAC86  ',
(PID.TID 0000.0001) >   filename(201) = 'Phy65',
(PID.TID 0000.0001) >  frequency(202) = -86400.,
(PID.TID 0000.0001) >  timePhase(202) = 0.,
(PID.TID 0000.0001) >   fields(1,202) = 'TRAC87  ',
(PID.TID 0000.0001) >   filename(202) = 'Phy66',
(PID.TID 0000.0001) >  frequency(203) = -86400.,
(PID.TID 0000.0001) >  timePhase(203) = 0.,
(PID.TID 0000.0001) >   fields(1,203) = 'TRAC88  ',
(PID.TID 0000.0001) >   filename(203) = 'Phy67',
(PID.TID 0000.0001) >  frequency(204) = -86400.,
(PID.TID 0000.0001) >  timePhase(204) = 0.,
(PID.TID 0000.0001) >   fields(1,204) = 'TRAC89  ',
(PID.TID 0000.0001) >   filename(204) = 'Phy68',
(PID.TID 0000.0001) >  frequency(205) = -86400.,
(PID.TID 0000.0001) >  timePhase(205) = 0.,
(PID.TID 0000.0001) >   fields(1,205) = 'TRAC90  ',
(PID.TID 0000.0001) >   filename(205) = 'Phy69',
(PID.TID 0000.0001) >  frequency(206) = -86400.,
(PID.TID 0000.0001) >  timePhase(206) = 0.,
(PID.TID 0000.0001) >   fields(1,206) = 'TRAC91  ',
(PID.TID 0000.0001) >   filename(206) = 'Phy70',
(PID.TID 0000.0001) >  frequency(207) = -86400.,
(PID.TID 0000.0001) >  timePhase(207) = 0.,
(PID.TID 0000.0001) >   fields(1,207) = 'TRAC92  ',
(PID.TID 0000.0001) >   filename(207) = 'Phy71',
(PID.TID 0000.0001) >  frequency(208) = -86400.,
(PID.TID 0000.0001) >  timePhase(208) = 0.,
(PID.TID 0000.0001) >   fields(1,208) = 'TRAC93  ',
(PID.TID 0000.0001) >   filename(208) = 'Phy72',
(PID.TID 0000.0001) >  frequency(209) = -86400.,
(PID.TID 0000.0001) >  timePhase(209) = 0.,
(PID.TID 0000.0001) >   fields(1,209) = 'TRAC94  ',
(PID.TID 0000.0001) >   filename(209) = 'Phy73',
(PID.TID 0000.0001) >  frequency(210) = -86400.,
(PID.TID 0000.0001) >  timePhase(210) = 0.,
(PID.TID 0000.0001) >   fields(1,210) = 'TRAC95  ',
(PID.TID 0000.0001) >   filename(210) = 'Phy74',
(PID.TID 0000.0001) >  frequency(211) = -86400.,
(PID.TID 0000.0001) >  timePhase(211) = 0.,
(PID.TID 0000.0001) >   fields(1,211) = 'TRAC96  ',
(PID.TID 0000.0001) >   filename(211) = 'Phy75',
(PID.TID 0000.0001) >  frequency(212) = -86400.,
(PID.TID 0000.0001) >  timePhase(212) = 0.,
(PID.TID 0000.0001) >   fields(1,212) = 'TRAC97  ',
(PID.TID 0000.0001) >   filename(212) = 'Phy76',
(PID.TID 0000.0001) >  frequency(213) = -86400.,
(PID.TID 0000.0001) >  timePhase(213) = 0.,
(PID.TID 0000.0001) >   fields(1,213) = 'TRAC98  ',
(PID.TID 0000.0001) >   filename(213) = 'Phy77',
(PID.TID 0000.0001) >  frequency(214) = -86400.,
(PID.TID 0000.0001) >  timePhase(214) = 0.,
(PID.TID 0000.0001) >   fields(1,214) = 'TRAC99  ',
(PID.TID 0000.0001) >   filename(214) = 'Phy78',
(PID.TID 0000.0001) ># frequency(215) = -1200.,
(PID.TID 0000.0001) ># timePhase(215) = 0.,
(PID.TID 0000.0001) >#  fields(1,215) = 'UDIAG1  ',
(PID.TID 0000.0001) >#  filename(215) = 'fe_pre',
(PID.TID 0000.0001) ># frequency(216) = -1200.,
(PID.TID 0000.0001) ># timePhase(216) = 0.,
(PID.TID 0000.0001) >#  fields(1,216) = 'UDIAG2  ',
(PID.TID 0000.0001) >#  filename(216) = 'fe_post',
(PID.TID 0000.0001) ># frequency(217) = -1200.,
(PID.TID 0000.0001) ># timePhase(217) = 0.,
(PID.TID 0000.0001) >#  fields(1,217) = 'UDIAG3  ',
(PID.TID 0000.0001) >#  filename(217) = 'freefe',
(PID.TID 0000.0001) >#
(PID.TID 0000.0001) > /
(PID.TID 0000.0001) >
(PID.TID 0000.0001) ># Parameter for Diagnostics of per level statistics:
(PID.TID 0000.0001) >#-----------------
(PID.TID 0000.0001) ># for each output-stream:
(PID.TID 0000.0001) >#  stat_fname(n) : prefix of the output file name (only 8.c long) for
(PID.TID 0000.0001) >#outp.stream n
(PID.TID 0000.0001) >#  stat_freq(n):< 0 : write snap-shot output every |stat_freq| seconds
(PID.TID 0000.0001) >#               > 0 : write time-average output every stat_freq seconds
(PID.TID 0000.0001) >#  stat_phase(n)    : write at time = stat_phase + multiple of |stat_freq|
(PID.TID 0000.0001) >#  stat_region(:,n) : list of "regions" (default: 1 region only=global)
(PID.TID 0000.0001) >#  stat_fields(:,n) : list of diagnostics fields (8.c) (see
(PID.TID 0000.0001) >#"available_diagnostics.log"
(PID.TID 0000.0001) >#                 file for the list of all available diag. in this particular
(PID.TID 0000.0001) >#config)
(PID.TID 0000.0001) >#-----------------
(PID.TID 0000.0001) > &DIAG_STATIS_PARMS
(PID.TID 0000.0001) >#- an example just to check the agreement with MONITOR output:
(PID.TID 0000.0001) > stat_fields(1,1)= 'SIqsw   '
(PID.TID 0000.0001) >    stat_fname(1)= 'SIqsw_stat',
(PID.TID 0000.0001) >     stat_freq(1)= 1200.,
(PID.TID 0000.0001) >    stat_phase(1)= 0.,
(PID.TID 0000.0001) > stat_fields(1,2)= 'oceQsw  '
(PID.TID 0000.0001) >    stat_fname(2)= 'oceQsw_stat',
(PID.TID 0000.0001) >     stat_freq(2)= 1200.,
(PID.TID 0000.0001) >    stat_phase(2)= 0.,
(PID.TID 0000.0001) > stat_fields(1,3)= 'PAR     '
(PID.TID 0000.0001) >    stat_fname(3)= 'PAR_stat',
(PID.TID 0000.0001) >     stat_freq(3)= 1200.,
(PID.TID 0000.0001) >    stat_phase(3)= 0.,
(PID.TID 0000.0001) > stat_fields(1,4)= 'EXFswnet'
(PID.TID 0000.0001) >    stat_fname(4)= 'EXFswnet_stat',
(PID.TID 0000.0001) >     stat_freq(4)= 1200.,
(PID.TID 0000.0001) >    stat_phase(4)= 0.,
(PID.TID 0000.0001) > stat_fields(1,5)= 'EXFswdn '
(PID.TID 0000.0001) >    stat_fname(5)= 'EXFswdn_stat',
(PID.TID 0000.0001) >     stat_freq(5)= 1200.,
(PID.TID 0000.0001) >    stat_phase(5)= 0.,
(PID.TID 0000.0001) > stat_fields(1,6)= 'THETA   '
(PID.TID 0000.0001) >    stat_fname(6)= 'THETA_stat',
(PID.TID 0000.0001) >     stat_freq(6)= 1200.,
(PID.TID 0000.0001) >    stat_phase(6)= 0.,
(PID.TID 0000.0001) > stat_fields(1,7)= 'SALTanom'
(PID.TID 0000.0001) >    stat_fname(7)= 'SALTanom_stat',
(PID.TID 0000.0001) >     stat_freq(7)= 1200.,
(PID.TID 0000.0001) >    stat_phase(7)= 0.,
(PID.TID 0000.0001) > stat_fields(1,8)= 'PP      '
(PID.TID 0000.0001) >    stat_fname(8)= 'PP_stat',
(PID.TID 0000.0001) >     stat_freq(8)= 1200.,
(PID.TID 0000.0001) >    stat_phase(8)= 0.,
(PID.TID 0000.0001) > stat_fields(1,9)= 'TRAC79  '
(PID.TID 0000.0001) >    stat_fname(9)= 'Phy58_stat',
(PID.TID 0000.0001) >     stat_freq(9)= 1200.,
(PID.TID 0000.0001) >    stat_phase(9)= 0.,
(PID.TID 0000.0001) > stat_fields(1,10)= 'ETAN    '
(PID.TID 0000.0001) >    stat_fname(10)= 'ETAN_stat',
(PID.TID 0000.0001) >     stat_freq(10)= 1200.,
(PID.TID 0000.0001) >    stat_phase(10)= 0.,
(PID.TID 0000.0001) > stat_fields(1,11)= 'TRAC03  '
(PID.TID 0000.0001) >    stat_fname(11)= 'FeT_stat',
(PID.TID 0000.0001) >     stat_freq(11)= 1200.,
(PID.TID 0000.0001) >    stat_phase(11)= 0.,
(PID.TID 0000.0001) > /
(PID.TID 0000.0001) 
(PID.TID 0000.0001) S/R DIAGNOSTICS_READPARMS, read namelist "diagnostics_list": start
(PID.TID 0000.0001) S/R DIAGNOSTICS_READPARMS, read namelist "diagnostics_list": OK
(PID.TID 0000.0001) S/R DIAGNOSTICS_READPARMS, read namelist "DIAG_STATIS_PARMS": start
(PID.TID 0000.0001) S/R DIAGNOSTICS_READPARMS, read namelist "DIAG_STATIS_PARMS": OK
(PID.TID 0000.0001) -----------------------------------------------------
(PID.TID 0000.0001)  DIAGNOSTICS_READPARMS: active diagnostics summary:
(PID.TID 0000.0001) -----------------------------------------------------
(PID.TID 0000.0001) Creating Output Stream: THETA_day
(PID.TID 0000.0001) Output Frequency:      86400.000000 ; Phase:           0.000000
(PID.TID 0000.0001)  Averaging Freq.:      86400.000000 , Phase:           0.000000 , Cycle:   1
(PID.TID 0000.0001)  missing value:  1.234567000000E+05 ; for integers:   123456789
(PID.TID 0000.0001)  Levels:    will be set later
(PID.TID 0000.0001)  Fields:    THETA
(PID.TID 0000.0001) Creating Output Stream: SALTanom_day
(PID.TID 0000.0001) Output Frequency:      86400.000000 ; Phase:           0.000000
(PID.TID 0000.0001)  Averaging Freq.:      86400.000000 , Phase:           0.000000 , Cycle:   1
(PID.TID 0000.0001)  missing value:  1.234567000000E+05 ; for integers:   123456789
(PID.TID 0000.0001)  Levels:    will be set later
(PID.TID 0000.0001)  Fields:    SALTanom
(PID.TID 0000.0001) Creating Output Stream: SIarea_day
(PID.TID 0000.0001) Output Frequency:      86400.000000 ; Phase:           0.000000
(PID.TID 0000.0001)  Averaging Freq.:      86400.000000 , Phase:           0.000000 , Cycle:   1
(PID.TID 0000.0001)  missing value:  1.234567000000E+05 ; for integers:   123456789
(PID.TID 0000.0001)  Levels:    will be set later
(PID.TID 0000.0001)  Fields:    SIarea
(PID.TID 0000.0001) Creating Output Stream: SIheff_day
(PID.TID 0000.0001) Output Frequency:      86400.000000 ; Phase:           0.000000
(PID.TID 0000.0001)  Averaging Freq.:      86400.000000 , Phase:           0.000000 , Cycle:   1
(PID.TID 0000.0001)  missing value:  1.234567000000E+05 ; for integers:   123456789
(PID.TID 0000.0001)  Levels:    will be set later
(PID.TID 0000.0001)  Fields:    SIheff
(PID.TID 0000.0001) Creating Output Stream: SIhsnow_day
(PID.TID 0000.0001) Output Frequency:      86400.000000 ; Phase:           0.000000
(PID.TID 0000.0001)  Averaging Freq.:      86400.000000 , Phase:           0.000000 , Cycle:   1
(PID.TID 0000.0001)  missing value:  1.234567000000E+05 ; for integers:   123456789
(PID.TID 0000.0001)  Levels:    will be set later
(PID.TID 0000.0001)  Fields:    SIhsnow
(PID.TID 0000.0001) Creating Output Stream: SIqsw_day
(PID.TID 0000.0001) Output Frequency:      86400.000000 ; Phase:           0.000000
(PID.TID 0000.0001)  Averaging Freq.:      86400.000000 , Phase:           0.000000 , Cycle:   1
(PID.TID 0000.0001)  missing value:  1.234567000000E+05 ; for integers:   123456789
(PID.TID 0000.0001)  Levels:    will be set later
(PID.TID 0000.0001)  Fields:    SIqsw
(PID.TID 0000.0001) Creating Output Stream: SIarea
(PID.TID 0000.0001) Output Frequency:     -86400.000000 ; Phase:           0.000000
(PID.TID 0000.0001)  Averaging Freq.:          0.000000 , Phase:           0.000000 , Cycle:   1
(PID.TID 0000.0001)  missing value:  1.234567000000E+05 ; for integers:   123456789
(PID.TID 0000.0001)  Levels:    will be set later
(PID.TID 0000.0001)  Fields:    SIarea
(PID.TID 0000.0001) Creating Output Stream: SIheff
(PID.TID 0000.0001) Output Frequency:     -86400.000000 ; Phase:           0.000000
(PID.TID 0000.0001)  Averaging Freq.:          0.000000 , Phase:           0.000000 , Cycle:   1
(PID.TID 0000.0001)  missing value:  1.234567000000E+05 ; for integers:   123456789
(PID.TID 0000.0001)  Levels:    will be set later
(PID.TID 0000.0001)  Fields:    SIheff
(PID.TID 0000.0001) Creating Output Stream: SIhsnow
(PID.TID 0000.0001) Output Frequency:     -86400.000000 ; Phase:           0.000000
(PID.TID 0000.0001)  Averaging Freq.:          0.000000 , Phase:           0.000000 , Cycle:   1
(PID.TID 0000.0001)  missing value:  1.234567000000E+05 ; for integers:   123456789
(PID.TID 0000.0001)  Levels:    will be set later
(PID.TID 0000.0001)  Fields:    SIhsnow
(PID.TID 0000.0001) Creating Output Stream: SIqsw
(PID.TID 0000.0001) Output Frequency:     -86400.000000 ; Phase:           0.000000
(PID.TID 0000.0001)  Averaging Freq.:          0.000000 , Phase:           0.000000 , Cycle:   1
(PID.TID 0000.0001)  missing value:  1.234567000000E+05 ; for integers:   123456789
(PID.TID 0000.0001)  Levels:    will be set later
(PID.TID 0000.0001)  Fields:    SIqsw
(PID.TID 0000.0001) Creating Output Stream: PAR_day
(PID.TID 0000.0001) Output Frequency:      86400.000000 ; Phase:           0.000000
(PID.TID 0000.0001)  Averaging Freq.:      86400.000000 , Phase:           0.000000 , Cycle:   1
(PID.TID 0000.0001)  missing value:  1.234567000000E+05 ; for integers:   123456789
(PID.TID 0000.0001)  Levels:    will be set later
(PID.TID 0000.0001)  Fields:    PAR
(PID.TID 0000.0001) Creating Output Stream: PP_day
(PID.TID 0000.0001) Output Frequency:      86400.000000 ; Phase:           0.000000
(PID.TID 0000.0001)  Averaging Freq.:      86400.000000 , Phase:           0.000000 , Cycle:   1
(PID.TID 0000.0001)  missing value:  1.234567000000E+05 ; for integers:   123456789
(PID.TID 0000.0001)  Levels:    will be set later
(PID.TID 0000.0001)  Fields:    PP
(PID.TID 0000.0001) Creating Output Stream: Nfix_day
(PID.TID 0000.0001) Output Frequency:      86400.000000 ; Phase:           0.000000
(PID.TID 0000.0001)  Averaging Freq.:      86400.000000 , Phase:           0.000000 , Cycle:   1
(PID.TID 0000.0001)  missing value:  1.234567000000E+05 ; for integers:   123456789
(PID.TID 0000.0001)  Levels:    will be set later
(PID.TID 0000.0001)  Fields:    Nfix
(PID.TID 0000.0001) Creating Output Stream: PAR
(PID.TID 0000.0001) Output Frequency:     -86400.000000 ; Phase:           0.000000
(PID.TID 0000.0001)  Averaging Freq.:          0.000000 , Phase:           0.000000 , Cycle:   1
(PID.TID 0000.0001)  missing value:  1.234567000000E+05 ; for integers:   123456789
(PID.TID 0000.0001)  Levels:    will be set later
(PID.TID 0000.0001)  Fields:    PAR
(PID.TID 0000.0001) Creating Output Stream: PP
(PID.TID 0000.0001) Output Frequency:     -86400.000000 ; Phase:           0.000000
(PID.TID 0000.0001)  Averaging Freq.:          0.000000 , Phase:           0.000000 , Cycle:   1
(PID.TID 0000.0001)  missing value:  1.234567000000E+05 ; for integers:   123456789
(PID.TID 0000.0001)  Levels:    will be set later
(PID.TID 0000.0001)  Fields:    PP
(PID.TID 0000.0001) Creating Output Stream: Nfix
(PID.TID 0000.0001) Output Frequency:     -86400.000000 ; Phase:           0.000000
(PID.TID 0000.0001)  Averaging Freq.:          0.000000 , Phase:           0.000000 , Cycle:   1
(PID.TID 0000.0001)  missing value:  1.234567000000E+05 ; for integers:   123456789
(PID.TID 0000.0001)  Levels:    will be set later
(PID.TID 0000.0001)  Fields:    Nfix
(PID.TID 0000.0001) Creating Output Stream: PO4_day
(PID.TID 0000.0001) Output Frequency:      86400.000000 ; Phase:           0.000000
(PID.TID 0000.0001)  Averaging Freq.:      86400.000000 , Phase:           0.000000 , Cycle:   1
(PID.TID 0000.0001)  missing value:  1.234567000000E+05 ; for integers:   123456789
(PID.TID 0000.0001)  Levels:    will be set later
(PID.TID 0000.0001)  Fields:    TRAC01
(PID.TID 0000.0001) Creating Output Stream: NO3_day
(PID.TID 0000.0001) Output Frequency:      86400.000000 ; Phase:           0.000000
(PID.TID 0000.0001)  Averaging Freq.:      86400.000000 , Phase:           0.000000 , Cycle:   1
(PID.TID 0000.0001)  missing value:  1.234567000000E+05 ; for integers:   123456789
(PID.TID 0000.0001)  Levels:    will be set later
(PID.TID 0000.0001)  Fields:    TRAC02
(PID.TID 0000.0001) Creating Output Stream: FeT_day
(PID.TID 0000.0001) Output Frequency:      86400.000000 ; Phase:           0.000000
(PID.TID 0000.0001)  Averaging Freq.:      86400.000000 , Phase:           0.000000 , Cycle:   1
(PID.TID 0000.0001)  missing value:  1.234567000000E+05 ; for integers:   123456789
(PID.TID 0000.0001)  Levels:    will be set later
(PID.TID 0000.0001)  Fields:    TRAC03
(PID.TID 0000.0001) Creating Output Stream: SiO2_day
(PID.TID 0000.0001) Output Frequency:      86400.000000 ; Phase:           0.000000
(PID.TID 0000.0001)  Averaging Freq.:      86400.000000 , Phase:           0.000000 , Cycle:   1
(PID.TID 0000.0001)  missing value:  1.234567000000E+05 ; for integers:   123456789
(PID.TID 0000.0001)  Levels:    will be set later
(PID.TID 0000.0001)  Fields:    TRAC04
(PID.TID 0000.0001) Creating Output Stream: DOP_day
(PID.TID 0000.0001) Output Frequency:      86400.000000 ; Phase:           0.000000
(PID.TID 0000.0001)  Averaging Freq.:      86400.000000 , Phase:           0.000000 , Cycle:   1
(PID.TID 0000.0001)  missing value:  1.234567000000E+05 ; for integers:   123456789
(PID.TID 0000.0001)  Levels:    will be set later
(PID.TID 0000.0001)  Fields:    TRAC05
(PID.TID 0000.0001) Creating Output Stream: DON_day
(PID.TID 0000.0001) Output Frequency:      86400.000000 ; Phase:           0.000000
(PID.TID 0000.0001)  Averaging Freq.:      86400.000000 , Phase:           0.000000 , Cycle:   1
(PID.TID 0000.0001)  missing value:  1.234567000000E+05 ; for integers:   123456789
(PID.TID 0000.0001)  Levels:    will be set later
(PID.TID 0000.0001)  Fields:    TRAC06
(PID.TID 0000.0001) Creating Output Stream: DOFe_day
(PID.TID 0000.0001) Output Frequency:      86400.000000 ; Phase:           0.000000
(PID.TID 0000.0001)  Averaging Freq.:      86400.000000 , Phase:           0.000000 , Cycle:   1
(PID.TID 0000.0001)  missing value:  1.234567000000E+05 ; for integers:   123456789
(PID.TID 0000.0001)  Levels:    will be set later
(PID.TID 0000.0001)  Fields:    TRAC07
(PID.TID 0000.0001) Creating Output Stream: ZOO1P_day
(PID.TID 0000.0001) Output Frequency:      86400.000000 ; Phase:           0.000000
(PID.TID 0000.0001)  Averaging Freq.:      86400.000000 , Phase:           0.000000 , Cycle:   1
(PID.TID 0000.0001)  missing value:  1.234567000000E+05 ; for integers:   123456789
(PID.TID 0000.0001)  Levels:    will be set later
(PID.TID 0000.0001)  Fields:    TRAC08
(PID.TID 0000.0001) Creating Output Stream: ZOO1N_day
(PID.TID 0000.0001) Output Frequency:      86400.000000 ; Phase:           0.000000
(PID.TID 0000.0001)  Averaging Freq.:      86400.000000 , Phase:           0.000000 , Cycle:   1
(PID.TID 0000.0001)  missing value:  1.234567000000E+05 ; for integers:   123456789
(PID.TID 0000.0001)  Levels:    will be set later
(PID.TID 0000.0001)  Fields:    TRAC09
(PID.TID 0000.0001) Creating Output Stream: ZOO1Fe_day
(PID.TID 0000.0001) Output Frequency:      86400.000000 ; Phase:           0.000000
(PID.TID 0000.0001)  Averaging Freq.:      86400.000000 , Phase:           0.000000 , Cycle:   1
(PID.TID 0000.0001)  missing value:  1.234567000000E+05 ; for integers:   123456789
(PID.TID 0000.0001)  Levels:    will be set later
(PID.TID 0000.0001)  Fields:    TRAC10
(PID.TID 0000.0001) Creating Output Stream: ZOO1Si_day
(PID.TID 0000.0001) Output Frequency:      86400.000000 ; Phase:           0.000000
(PID.TID 0000.0001)  Averaging Freq.:      86400.000000 , Phase:           0.000000 , Cycle:   1
(PID.TID 0000.0001)  missing value:  1.234567000000E+05 ; for integers:   123456789
(PID.TID 0000.0001)  Levels:    will be set later
(PID.TID 0000.0001)  Fields:    TRAC11
(PID.TID 0000.0001) Creating Output Stream: ZOO2P_day
(PID.TID 0000.0001) Output Frequency:      86400.000000 ; Phase:           0.000000
(PID.TID 0000.0001)  Averaging Freq.:      86400.000000 , Phase:           0.000000 , Cycle:   1
(PID.TID 0000.0001)  missing value:  1.234567000000E+05 ; for integers:   123456789
(PID.TID 0000.0001)  Levels:    will be set later
(PID.TID 0000.0001)  Fields:    TRAC12
(PID.TID 0000.0001) Creating Output Stream: ZOO2N_day
(PID.TID 0000.0001) Output Frequency:      86400.000000 ; Phase:           0.000000
(PID.TID 0000.0001)  Averaging Freq.:      86400.000000 , Phase:           0.000000 , Cycle:   1
(PID.TID 0000.0001)  missing value:  1.234567000000E+05 ; for integers:   123456789
(PID.TID 0000.0001)  Levels:    will be set later
(PID.TID 0000.0001)  Fields:    TRAC13
(PID.TID 0000.0001) Creating Output Stream: ZOO2Fe_day
(PID.TID 0000.0001) Output Frequency:      86400.000000 ; Phase:           0.000000
(PID.TID 0000.0001)  Averaging Freq.:      86400.000000 , Phase:           0.000000 , Cycle:   1
(PID.TID 0000.0001)  missing value:  1.234567000000E+05 ; for integers:   123456789
(PID.TID 0000.0001)  Levels:    will be set later
(PID.TID 0000.0001)  Fields:    TRAC14
(PID.TID 0000.0001) Creating Output Stream: ZOO2Si_day
(PID.TID 0000.0001) Output Frequency:      86400.000000 ; Phase:           0.000000
(PID.TID 0000.0001)  Averaging Freq.:      86400.000000 , Phase:           0.000000 , Cycle:   1
(PID.TID 0000.0001)  missing value:  1.234567000000E+05 ; for integers:   123456789
(PID.TID 0000.0001)  Levels:    will be set later
(PID.TID 0000.0001)  Fields:    TRAC15
(PID.TID 0000.0001) Creating Output Stream: POP_day
(PID.TID 0000.0001) Output Frequency:      86400.000000 ; Phase:           0.000000
(PID.TID 0000.0001)  Averaging Freq.:      86400.000000 , Phase:           0.000000 , Cycle:   1
(PID.TID 0000.0001)  missing value:  1.234567000000E+05 ; for integers:   123456789
(PID.TID 0000.0001)  Levels:    will be set later
(PID.TID 0000.0001)  Fields:    TRAC16
(PID.TID 0000.0001) Creating Output Stream: PON_day
(PID.TID 0000.0001) Output Frequency:      86400.000000 ; Phase:           0.000000
(PID.TID 0000.0001)  Averaging Freq.:      86400.000000 , Phase:           0.000000 , Cycle:   1
(PID.TID 0000.0001)  missing value:  1.234567000000E+05 ; for integers:   123456789
(PID.TID 0000.0001)  Levels:    will be set later
(PID.TID 0000.0001)  Fields:    TRAC17
(PID.TID 0000.0001) Creating Output Stream: POFe_day
(PID.TID 0000.0001) Output Frequency:      86400.000000 ; Phase:           0.000000
(PID.TID 0000.0001)  Averaging Freq.:      86400.000000 , Phase:           0.000000 , Cycle:   1
(PID.TID 0000.0001)  missing value:  1.234567000000E+05 ; for integers:   123456789
(PID.TID 0000.0001)  Levels:    will be set later
(PID.TID 0000.0001)  Fields:    TRAC18
(PID.TID 0000.0001) Creating Output Stream: POSi_day
(PID.TID 0000.0001) Output Frequency:      86400.000000 ; Phase:           0.000000
(PID.TID 0000.0001)  Averaging Freq.:      86400.000000 , Phase:           0.000000 , Cycle:   1
(PID.TID 0000.0001)  missing value:  1.234567000000E+05 ; for integers:   123456789
(PID.TID 0000.0001)  Levels:    will be set later
(PID.TID 0000.0001)  Fields:    TRAC19
(PID.TID 0000.0001) Creating Output Stream: NH4_day
(PID.TID 0000.0001) Output Frequency:      86400.000000 ; Phase:           0.000000
(PID.TID 0000.0001)  Averaging Freq.:      86400.000000 , Phase:           0.000000 , Cycle:   1
(PID.TID 0000.0001)  missing value:  1.234567000000E+05 ; for integers:   123456789
(PID.TID 0000.0001)  Levels:    will be set later
(PID.TID 0000.0001)  Fields:    TRAC20
(PID.TID 0000.0001) Creating Output Stream: NO2_day
(PID.TID 0000.0001) Output Frequency:      86400.000000 ; Phase:           0.000000
(PID.TID 0000.0001)  Averaging Freq.:      86400.000000 , Phase:           0.000000 , Cycle:   1
(PID.TID 0000.0001)  missing value:  1.234567000000E+05 ; for integers:   123456789
(PID.TID 0000.0001)  Levels:    will be set later
(PID.TID 0000.0001)  Fields:    TRAC21
(PID.TID 0000.0001) Creating Output Stream: Phy01_day
(PID.TID 0000.0001) Output Frequency:      86400.000000 ; Phase:           0.000000
(PID.TID 0000.0001)  Averaging Freq.:      86400.000000 , Phase:           0.000000 , Cycle:   1
(PID.TID 0000.0001)  missing value:  1.234567000000E+05 ; for integers:   123456789
(PID.TID 0000.0001)  Levels:    will be set later
(PID.TID 0000.0001)  Fields:    TRAC22
(PID.TID 0000.0001) Creating Output Stream: Phy02_day
(PID.TID 0000.0001) Output Frequency:      86400.000000 ; Phase:           0.000000
(PID.TID 0000.0001)  Averaging Freq.:      86400.000000 , Phase:           0.000000 , Cycle:   1
(PID.TID 0000.0001)  missing value:  1.234567000000E+05 ; for integers:   123456789
(PID.TID 0000.0001)  Levels:    will be set later
(PID.TID 0000.0001)  Fields:    TRAC23
(PID.TID 0000.0001) Creating Output Stream: Phy03_day
(PID.TID 0000.0001) Output Frequency:      86400.000000 ; Phase:           0.000000
(PID.TID 0000.0001)  Averaging Freq.:      86400.000000 , Phase:           0.000000 , Cycle:   1
(PID.TID 0000.0001)  missing value:  1.234567000000E+05 ; for integers:   123456789
(PID.TID 0000.0001)  Levels:    will be set later
(PID.TID 0000.0001)  Fields:    TRAC24
(PID.TID 0000.0001) Creating Output Stream: Phy04_day
(PID.TID 0000.0001) Output Frequency:      86400.000000 ; Phase:           0.000000
(PID.TID 0000.0001)  Averaging Freq.:      86400.000000 , Phase:           0.000000 , Cycle:   1
(PID.TID 0000.0001)  missing value:  1.234567000000E+05 ; for integers:   123456789
(PID.TID 0000.0001)  Levels:    will be set later
(PID.TID 0000.0001)  Fields:    TRAC25
(PID.TID 0000.0001) Creating Output Stream: Phy05_day
(PID.TID 0000.0001) Output Frequency:      86400.000000 ; Phase:           0.000000
(PID.TID 0000.0001)  Averaging Freq.:      86400.000000 , Phase:           0.000000 , Cycle:   1
(PID.TID 0000.0001)  missing value:  1.234567000000E+05 ; for integers:   123456789
(PID.TID 0000.0001)  Levels:    will be set later
(PID.TID 0000.0001)  Fields:    TRAC26
(PID.TID 0000.0001) Creating Output Stream: Phy06_day
(PID.TID 0000.0001) Output Frequency:      86400.000000 ; Phase:           0.000000
(PID.TID 0000.0001)  Averaging Freq.:      86400.000000 , Phase:           0.000000 , Cycle:   1
(PID.TID 0000.0001)  missing value:  1.234567000000E+05 ; for integers:   123456789
(PID.TID 0000.0001)  Levels:    will be set later
(PID.TID 0000.0001)  Fields:    TRAC27
(PID.TID 0000.0001) Creating Output Stream: Phy07_day
(PID.TID 0000.0001) Output Frequency:      86400.000000 ; Phase:           0.000000
(PID.TID 0000.0001)  Averaging Freq.:      86400.000000 , Phase:           0.000000 , Cycle:   1
(PID.TID 0000.0001)  missing value:  1.234567000000E+05 ; for integers:   123456789
(PID.TID 0000.0001)  Levels:    will be set later
(PID.TID 0000.0001)  Fields:    TRAC28
(PID.TID 0000.0001) Creating Output Stream: Phy08_day
(PID.TID 0000.0001) Output Frequency:      86400.000000 ; Phase:           0.000000
(PID.TID 0000.0001)  Averaging Freq.:      86400.000000 , Phase:           0.000000 , Cycle:   1
(PID.TID 0000.0001)  missing value:  1.234567000000E+05 ; for integers:   123456789
(PID.TID 0000.0001)  Levels:    will be set later
(PID.TID 0000.0001)  Fields:    TRAC29
(PID.TID 0000.0001) Creating Output Stream: Phy09_day
(PID.TID 0000.0001) Output Frequency:      86400.000000 ; Phase:           0.000000
(PID.TID 0000.0001)  Averaging Freq.:      86400.000000 , Phase:           0.000000 , Cycle:   1
(PID.TID 0000.0001)  missing value:  1.234567000000E+05 ; for integers:   123456789
(PID.TID 0000.0001)  Levels:    will be set later
(PID.TID 0000.0001)  Fields:    TRAC30
(PID.TID 0000.0001) Creating Output Stream: Phy10_day
(PID.TID 0000.0001) Output Frequency:      86400.000000 ; Phase:           0.000000
(PID.TID 0000.0001)  Averaging Freq.:      86400.000000 , Phase:           0.000000 , Cycle:   1
(PID.TID 0000.0001)  missing value:  1.234567000000E+05 ; for integers:   123456789
(PID.TID 0000.0001)  Levels:    will be set later
(PID.TID 0000.0001)  Fields:    TRAC31
(PID.TID 0000.0001) Creating Output Stream: Phy11_day
(PID.TID 0000.0001) Output Frequency:      86400.000000 ; Phase:           0.000000
(PID.TID 0000.0001)  Averaging Freq.:      86400.000000 , Phase:           0.000000 , Cycle:   1
(PID.TID 0000.0001)  missing value:  1.234567000000E+05 ; for integers:   123456789
(PID.TID 0000.0001)  Levels:    will be set later
(PID.TID 0000.0001)  Fields:    TRAC32
(PID.TID 0000.0001) Creating Output Stream: Phy12_day
(PID.TID 0000.0001) Output Frequency:      86400.000000 ; Phase:           0.000000
(PID.TID 0000.0001)  Averaging Freq.:      86400.000000 , Phase:           0.000000 , Cycle:   1
(PID.TID 0000.0001)  missing value:  1.234567000000E+05 ; for integers:   123456789
(PID.TID 0000.0001)  Levels:    will be set later
(PID.TID 0000.0001)  Fields:    TRAC33
(PID.TID 0000.0001) Creating Output Stream: Phy13_day
(PID.TID 0000.0001) Output Frequency:      86400.000000 ; Phase:           0.000000
(PID.TID 0000.0001)  Averaging Freq.:      86400.000000 , Phase:           0.000000 , Cycle:   1
(PID.TID 0000.0001)  missing value:  1.234567000000E+05 ; for integers:   123456789
(PID.TID 0000.0001)  Levels:    will be set later
(PID.TID 0000.0001)  Fields:    TRAC34
(PID.TID 0000.0001) Creating Output Stream: Phy14_day
(PID.TID 0000.0001) Output Frequency:      86400.000000 ; Phase:           0.000000
(PID.TID 0000.0001)  Averaging Freq.:      86400.000000 , Phase:           0.000000 , Cycle:   1
(PID.TID 0000.0001)  missing value:  1.234567000000E+05 ; for integers:   123456789
(PID.TID 0000.0001)  Levels:    will be set later
(PID.TID 0000.0001)  Fields:    TRAC35
(PID.TID 0000.0001) Creating Output Stream: Phy15_day
(PID.TID 0000.0001) Output Frequency:      86400.000000 ; Phase:           0.000000
(PID.TID 0000.0001)  Averaging Freq.:      86400.000000 , Phase:           0.000000 , Cycle:   1
(PID.TID 0000.0001)  missing value:  1.234567000000E+05 ; for integers:   123456789
(PID.TID 0000.0001)  Levels:    will be set later
(PID.TID 0000.0001)  Fields:    TRAC36
(PID.TID 0000.0001) Creating Output Stream: Phy16_day
(PID.TID 0000.0001) Output Frequency:      86400.000000 ; Phase:           0.000000
(PID.TID 0000.0001)  Averaging Freq.:      86400.000000 , Phase:           0.000000 , Cycle:   1
(PID.TID 0000.0001)  missing value:  1.234567000000E+05 ; for integers:   123456789
(PID.TID 0000.0001)  Levels:    will be set later
(PID.TID 0000.0001)  Fields:    TRAC37
(PID.TID 0000.0001) Creating Output Stream: Phy17_day
(PID.TID 0000.0001) Output Frequency:      86400.000000 ; Phase:           0.000000
(PID.TID 0000.0001)  Averaging Freq.:      86400.000000 , Phase:           0.000000 , Cycle:   1
(PID.TID 0000.0001)  missing value:  1.234567000000E+05 ; for integers:   123456789
(PID.TID 0000.0001)  Levels:    will be set later
(PID.TID 0000.0001)  Fields:    TRAC38
(PID.TID 0000.0001) Creating Output Stream: Phy18_day
(PID.TID 0000.0001) Output Frequency:      86400.000000 ; Phase:           0.000000
(PID.TID 0000.0001)  Averaging Freq.:      86400.000000 , Phase:           0.000000 , Cycle:   1
(PID.TID 0000.0001)  missing value:  1.234567000000E+05 ; for integers:   123456789
(PID.TID 0000.0001)  Levels:    will be set later
(PID.TID 0000.0001)  Fields:    TRAC39
(PID.TID 0000.0001) Creating Output Stream: Phy19_day
(PID.TID 0000.0001) Output Frequency:      86400.000000 ; Phase:           0.000000
(PID.TID 0000.0001)  Averaging Freq.:      86400.000000 , Phase:           0.000000 , Cycle:   1
(PID.TID 0000.0001)  missing value:  1.234567000000E+05 ; for integers:   123456789
(PID.TID 0000.0001)  Levels:    will be set later
(PID.TID 0000.0001)  Fields:    TRAC40
(PID.TID 0000.0001) Creating Output Stream: Phy20_day
(PID.TID 0000.0001) Output Frequency:      86400.000000 ; Phase:           0.000000
(PID.TID 0000.0001)  Averaging Freq.:      86400.000000 , Phase:           0.000000 , Cycle:   1
(PID.TID 0000.0001)  missing value:  1.234567000000E+05 ; for integers:   123456789
(PID.TID 0000.0001)  Levels:    will be set later
(PID.TID 0000.0001)  Fields:    TRAC41
(PID.TID 0000.0001) Creating Output Stream: Phy21_day
(PID.TID 0000.0001) Output Frequency:      86400.000000 ; Phase:           0.000000
(PID.TID 0000.0001)  Averaging Freq.:      86400.000000 , Phase:           0.000000 , Cycle:   1
(PID.TID 0000.0001)  missing value:  1.234567000000E+05 ; for integers:   123456789
(PID.TID 0000.0001)  Levels:    will be set later
(PID.TID 0000.0001)  Fields:    TRAC42
(PID.TID 0000.0001) Creating Output Stream: Phy22_day
(PID.TID 0000.0001) Output Frequency:      86400.000000 ; Phase:           0.000000
(PID.TID 0000.0001)  Averaging Freq.:      86400.000000 , Phase:           0.000000 , Cycle:   1
(PID.TID 0000.0001)  missing value:  1.234567000000E+05 ; for integers:   123456789
(PID.TID 0000.0001)  Levels:    will be set later
(PID.TID 0000.0001)  Fields:    TRAC43
(PID.TID 0000.0001) Creating Output Stream: Phy23_day
(PID.TID 0000.0001) Output Frequency:      86400.000000 ; Phase:           0.000000
(PID.TID 0000.0001)  Averaging Freq.:      86400.000000 , Phase:           0.000000 , Cycle:   1
(PID.TID 0000.0001)  missing value:  1.234567000000E+05 ; for integers:   123456789
(PID.TID 0000.0001)  Levels:    will be set later
(PID.TID 0000.0001)  Fields:    TRAC44
(PID.TID 0000.0001) Creating Output Stream: Phy24_day
(PID.TID 0000.0001) Output Frequency:      86400.000000 ; Phase:           0.000000
(PID.TID 0000.0001)  Averaging Freq.:      86400.000000 , Phase:           0.000000 , Cycle:   1
(PID.TID 0000.0001)  missing value:  1.234567000000E+05 ; for integers:   123456789
(PID.TID 0000.0001)  Levels:    will be set later
(PID.TID 0000.0001)  Fields:    TRAC45
(PID.TID 0000.0001) Creating Output Stream: Phy25_day
(PID.TID 0000.0001) Output Frequency:      86400.000000 ; Phase:           0.000000
(PID.TID 0000.0001)  Averaging Freq.:      86400.000000 , Phase:           0.000000 , Cycle:   1
(PID.TID 0000.0001)  missing value:  1.234567000000E+05 ; for integers:   123456789
(PID.TID 0000.0001)  Levels:    will be set later
(PID.TID 0000.0001)  Fields:    TRAC46
(PID.TID 0000.0001) Creating Output Stream: Phy26_day
(PID.TID 0000.0001) Output Frequency:      86400.000000 ; Phase:           0.000000
(PID.TID 0000.0001)  Averaging Freq.:      86400.000000 , Phase:           0.000000 , Cycle:   1
(PID.TID 0000.0001)  missing value:  1.234567000000E+05 ; for integers:   123456789
(PID.TID 0000.0001)  Levels:    will be set later
(PID.TID 0000.0001)  Fields:    TRAC47
(PID.TID 0000.0001) Creating Output Stream: Phy27_day
(PID.TID 0000.0001) Output Frequency:      86400.000000 ; Phase:           0.000000
(PID.TID 0000.0001)  Averaging Freq.:      86400.000000 , Phase:           0.000000 , Cycle:   1
(PID.TID 0000.0001)  missing value:  1.234567000000E+05 ; for integers:   123456789
(PID.TID 0000.0001)  Levels:    will be set later
(PID.TID 0000.0001)  Fields:    TRAC48
(PID.TID 0000.0001) Creating Output Stream: Phy28_day
(PID.TID 0000.0001) Output Frequency:      86400.000000 ; Phase:           0.000000
(PID.TID 0000.0001)  Averaging Freq.:      86400.000000 , Phase:           0.000000 , Cycle:   1
(PID.TID 0000.0001)  missing value:  1.234567000000E+05 ; for integers:   123456789
(PID.TID 0000.0001)  Levels:    will be set later
(PID.TID 0000.0001)  Fields:    TRAC49
(PID.TID 0000.0001) Creating Output Stream: Phy29_day
(PID.TID 0000.0001) Output Frequency:      86400.000000 ; Phase:           0.000000
(PID.TID 0000.0001)  Averaging Freq.:      86400.000000 , Phase:           0.000000 , Cycle:   1
(PID.TID 0000.0001)  missing value:  1.234567000000E+05 ; for integers:   123456789
(PID.TID 0000.0001)  Levels:    will be set later
(PID.TID 0000.0001)  Fields:    TRAC50
(PID.TID 0000.0001) Creating Output Stream: Phy30_day
(PID.TID 0000.0001) Output Frequency:      86400.000000 ; Phase:           0.000000
(PID.TID 0000.0001)  Averaging Freq.:      86400.000000 , Phase:           0.000000 , Cycle:   1
(PID.TID 0000.0001)  missing value:  1.234567000000E+05 ; for integers:   123456789
(PID.TID 0000.0001)  Levels:    will be set later
(PID.TID 0000.0001)  Fields:    TRAC51
(PID.TID 0000.0001) Creating Output Stream: Phy31_day
(PID.TID 0000.0001) Output Frequency:      86400.000000 ; Phase:           0.000000
(PID.TID 0000.0001)  Averaging Freq.:      86400.000000 , Phase:           0.000000 , Cycle:   1
(PID.TID 0000.0001)  missing value:  1.234567000000E+05 ; for integers:   123456789
(PID.TID 0000.0001)  Levels:    will be set later
(PID.TID 0000.0001)  Fields:    TRAC52
(PID.TID 0000.0001) Creating Output Stream: Phy32_day
(PID.TID 0000.0001) Output Frequency:      86400.000000 ; Phase:           0.000000
(PID.TID 0000.0001)  Averaging Freq.:      86400.000000 , Phase:           0.000000 , Cycle:   1
(PID.TID 0000.0001)  missing value:  1.234567000000E+05 ; for integers:   123456789
(PID.TID 0000.0001)  Levels:    will be set later
(PID.TID 0000.0001)  Fields:    TRAC53
(PID.TID 0000.0001) Creating Output Stream: Phy33_day
(PID.TID 0000.0001) Output Frequency:      86400.000000 ; Phase:           0.000000
(PID.TID 0000.0001)  Averaging Freq.:      86400.000000 , Phase:           0.000000 , Cycle:   1
(PID.TID 0000.0001)  missing value:  1.234567000000E+05 ; for integers:   123456789
(PID.TID 0000.0001)  Levels:    will be set later
(PID.TID 0000.0001)  Fields:    TRAC54
(PID.TID 0000.0001) Creating Output Stream: Phy34_day
(PID.TID 0000.0001) Output Frequency:      86400.000000 ; Phase:           0.000000
(PID.TID 0000.0001)  Averaging Freq.:      86400.000000 , Phase:           0.000000 , Cycle:   1
(PID.TID 0000.0001)  missing value:  1.234567000000E+05 ; for integers:   123456789
(PID.TID 0000.0001)  Levels:    will be set later
(PID.TID 0000.0001)  Fields:    TRAC55
(PID.TID 0000.0001) Creating Output Stream: Phy35_day
(PID.TID 0000.0001) Output Frequency:      86400.000000 ; Phase:           0.000000
(PID.TID 0000.0001)  Averaging Freq.:      86400.000000 , Phase:           0.000000 , Cycle:   1
(PID.TID 0000.0001)  missing value:  1.234567000000E+05 ; for integers:   123456789
(PID.TID 0000.0001)  Levels:    will be set later
(PID.TID 0000.0001)  Fields:    TRAC56
(PID.TID 0000.0001) Creating Output Stream: Phy36_day
(PID.TID 0000.0001) Output Frequency:      86400.000000 ; Phase:           0.000000
(PID.TID 0000.0001)  Averaging Freq.:      86400.000000 , Phase:           0.000000 , Cycle:   1
(PID.TID 0000.0001)  missing value:  1.234567000000E+05 ; for integers:   123456789
(PID.TID 0000.0001)  Levels:    will be set later
(PID.TID 0000.0001)  Fields:    TRAC57
(PID.TID 0000.0001) Creating Output Stream: Phy37_day
(PID.TID 0000.0001) Output Frequency:      86400.000000 ; Phase:           0.000000
(PID.TID 0000.0001)  Averaging Freq.:      86400.000000 , Phase:           0.000000 , Cycle:   1
(PID.TID 0000.0001)  missing value:  1.234567000000E+05 ; for integers:   123456789
(PID.TID 0000.0001)  Levels:    will be set later
(PID.TID 0000.0001)  Fields:    TRAC58
(PID.TID 0000.0001) Creating Output Stream: Phy38_day
(PID.TID 0000.0001) Output Frequency:      86400.000000 ; Phase:           0.000000
(PID.TID 0000.0001)  Averaging Freq.:      86400.000000 , Phase:           0.000000 , Cycle:   1
(PID.TID 0000.0001)  missing value:  1.234567000000E+05 ; for integers:   123456789
(PID.TID 0000.0001)  Levels:    will be set later
(PID.TID 0000.0001)  Fields:    TRAC59
(PID.TID 0000.0001) Creating Output Stream: Phy39_day
(PID.TID 0000.0001) Output Frequency:      86400.000000 ; Phase:           0.000000
(PID.TID 0000.0001)  Averaging Freq.:      86400.000000 , Phase:           0.000000 , Cycle:   1
(PID.TID 0000.0001)  missing value:  1.234567000000E+05 ; for integers:   123456789
(PID.TID 0000.0001)  Levels:    will be set later
(PID.TID 0000.0001)  Fields:    TRAC60
(PID.TID 0000.0001) Creating Output Stream: Phy40_day
(PID.TID 0000.0001) Output Frequency:      86400.000000 ; Phase:           0.000000
(PID.TID 0000.0001)  Averaging Freq.:      86400.000000 , Phase:           0.000000 , Cycle:   1
(PID.TID 0000.0001)  missing value:  1.234567000000E+05 ; for integers:   123456789
(PID.TID 0000.0001)  Levels:    will be set later
(PID.TID 0000.0001)  Fields:    TRAC61
(PID.TID 0000.0001) Creating Output Stream: Phy41_day
(PID.TID 0000.0001) Output Frequency:      86400.000000 ; Phase:           0.000000
(PID.TID 0000.0001)  Averaging Freq.:      86400.000000 , Phase:           0.000000 , Cycle:   1
(PID.TID 0000.0001)  missing value:  1.234567000000E+05 ; for integers:   123456789
(PID.TID 0000.0001)  Levels:    will be set later
(PID.TID 0000.0001)  Fields:    TRAC62
(PID.TID 0000.0001) Creating Output Stream: Phy42_day
(PID.TID 0000.0001) Output Frequency:      86400.000000 ; Phase:           0.000000
(PID.TID 0000.0001)  Averaging Freq.:      86400.000000 , Phase:           0.000000 , Cycle:   1
(PID.TID 0000.0001)  missing value:  1.234567000000E+05 ; for integers:   123456789
(PID.TID 0000.0001)  Levels:    will be set later
(PID.TID 0000.0001)  Fields:    TRAC63
(PID.TID 0000.0001) Creating Output Stream: Phy43_day
(PID.TID 0000.0001) Output Frequency:      86400.000000 ; Phase:           0.000000
(PID.TID 0000.0001)  Averaging Freq.:      86400.000000 , Phase:           0.000000 , Cycle:   1
(PID.TID 0000.0001)  missing value:  1.234567000000E+05 ; for integers:   123456789
(PID.TID 0000.0001)  Levels:    will be set later
(PID.TID 0000.0001)  Fields:    TRAC64
(PID.TID 0000.0001) Creating Output Stream: Phy44_day
(PID.TID 0000.0001) Output Frequency:      86400.000000 ; Phase:           0.000000
(PID.TID 0000.0001)  Averaging Freq.:      86400.000000 , Phase:           0.000000 , Cycle:   1
(PID.TID 0000.0001)  missing value:  1.234567000000E+05 ; for integers:   123456789
(PID.TID 0000.0001)  Levels:    will be set later
(PID.TID 0000.0001)  Fields:    TRAC65
(PID.TID 0000.0001) Creating Output Stream: Phy45_day
(PID.TID 0000.0001) Output Frequency:      86400.000000 ; Phase:           0.000000
(PID.TID 0000.0001)  Averaging Freq.:      86400.000000 , Phase:           0.000000 , Cycle:   1
(PID.TID 0000.0001)  missing value:  1.234567000000E+05 ; for integers:   123456789
(PID.TID 0000.0001)  Levels:    will be set later
(PID.TID 0000.0001)  Fields:    TRAC66
(PID.TID 0000.0001) Creating Output Stream: Phy46_day
(PID.TID 0000.0001) Output Frequency:      86400.000000 ; Phase:           0.000000
(PID.TID 0000.0001)  Averaging Freq.:      86400.000000 , Phase:           0.000000 , Cycle:   1
(PID.TID 0000.0001)  missing value:  1.234567000000E+05 ; for integers:   123456789
(PID.TID 0000.0001)  Levels:    will be set later
(PID.TID 0000.0001)  Fields:    TRAC67
(PID.TID 0000.0001) Creating Output Stream: Phy47_day
(PID.TID 0000.0001) Output Frequency:      86400.000000 ; Phase:           0.000000
(PID.TID 0000.0001)  Averaging Freq.:      86400.000000 , Phase:           0.000000 , Cycle:   1
(PID.TID 0000.0001)  missing value:  1.234567000000E+05 ; for integers:   123456789
(PID.TID 0000.0001)  Levels:    will be set later
(PID.TID 0000.0001)  Fields:    TRAC68
(PID.TID 0000.0001) Creating Output Stream: Phy48_day
(PID.TID 0000.0001) Output Frequency:      86400.000000 ; Phase:           0.000000
(PID.TID 0000.0001)  Averaging Freq.:      86400.000000 , Phase:           0.000000 , Cycle:   1
(PID.TID 0000.0001)  missing value:  1.234567000000E+05 ; for integers:   123456789
(PID.TID 0000.0001)  Levels:    will be set later
(PID.TID 0000.0001)  Fields:    TRAC69
(PID.TID 0000.0001) Creating Output Stream: Phy49_day
(PID.TID 0000.0001) Output Frequency:      86400.000000 ; Phase:           0.000000
(PID.TID 0000.0001)  Averaging Freq.:      86400.000000 , Phase:           0.000000 , Cycle:   1
(PID.TID 0000.0001)  missing value:  1.234567000000E+05 ; for integers:   123456789
(PID.TID 0000.0001)  Levels:    will be set later
(PID.TID 0000.0001)  Fields:    TRAC70
(PID.TID 0000.0001) Creating Output Stream: Phy50_day
(PID.TID 0000.0001) Output Frequency:      86400.000000 ; Phase:           0.000000
(PID.TID 0000.0001)  Averaging Freq.:      86400.000000 , Phase:           0.000000 , Cycle:   1
(PID.TID 0000.0001)  missing value:  1.234567000000E+05 ; for integers:   123456789
(PID.TID 0000.0001)  Levels:    will be set later
(PID.TID 0000.0001)  Fields:    TRAC71
(PID.TID 0000.0001) Creating Output Stream: Phy51_day
(PID.TID 0000.0001) Output Frequency:      86400.000000 ; Phase:           0.000000
(PID.TID 0000.0001)  Averaging Freq.:      86400.000000 , Phase:           0.000000 , Cycle:   1
(PID.TID 0000.0001)  missing value:  1.234567000000E+05 ; for integers:   123456789
(PID.TID 0000.0001)  Levels:    will be set later
(PID.TID 0000.0001)  Fields:    TRAC72
(PID.TID 0000.0001) Creating Output Stream: Phy52_day
(PID.TID 0000.0001) Output Frequency:      86400.000000 ; Phase:           0.000000
(PID.TID 0000.0001)  Averaging Freq.:      86400.000000 , Phase:           0.000000 , Cycle:   1
(PID.TID 0000.0001)  missing value:  1.234567000000E+05 ; for integers:   123456789
(PID.TID 0000.0001)  Levels:    will be set later
(PID.TID 0000.0001)  Fields:    TRAC73
(PID.TID 0000.0001) Creating Output Stream: Phy53_day
(PID.TID 0000.0001) Output Frequency:      86400.000000 ; Phase:           0.000000
(PID.TID 0000.0001)  Averaging Freq.:      86400.000000 , Phase:           0.000000 , Cycle:   1
(PID.TID 0000.0001)  missing value:  1.234567000000E+05 ; for integers:   123456789
(PID.TID 0000.0001)  Levels:    will be set later
(PID.TID 0000.0001)  Fields:    TRAC74
(PID.TID 0000.0001) Creating Output Stream: Phy54_day
(PID.TID 0000.0001) Output Frequency:      86400.000000 ; Phase:           0.000000
(PID.TID 0000.0001)  Averaging Freq.:      86400.000000 , Phase:           0.000000 , Cycle:   1
(PID.TID 0000.0001)  missing value:  1.234567000000E+05 ; for integers:   123456789
(PID.TID 0000.0001)  Levels:    will be set later
(PID.TID 0000.0001)  Fields:    TRAC75
(PID.TID 0000.0001) Creating Output Stream: Phy55_day
(PID.TID 0000.0001) Output Frequency:      86400.000000 ; Phase:           0.000000
(PID.TID 0000.0001)  Averaging Freq.:      86400.000000 , Phase:           0.000000 , Cycle:   1
(PID.TID 0000.0001)  missing value:  1.234567000000E+05 ; for integers:   123456789
(PID.TID 0000.0001)  Levels:    will be set later
(PID.TID 0000.0001)  Fields:    TRAC76
(PID.TID 0000.0001) Creating Output Stream: Phy56_day
(PID.TID 0000.0001) Output Frequency:      86400.000000 ; Phase:           0.000000
(PID.TID 0000.0001)  Averaging Freq.:      86400.000000 , Phase:           0.000000 , Cycle:   1
(PID.TID 0000.0001)  missing value:  1.234567000000E+05 ; for integers:   123456789
(PID.TID 0000.0001)  Levels:    will be set later
(PID.TID 0000.0001)  Fields:    TRAC77
(PID.TID 0000.0001) Creating Output Stream: Phy57_day
(PID.TID 0000.0001) Output Frequency:      86400.000000 ; Phase:           0.000000
(PID.TID 0000.0001)  Averaging Freq.:      86400.000000 , Phase:           0.000000 , Cycle:   1
(PID.TID 0000.0001)  missing value:  1.234567000000E+05 ; for integers:   123456789
(PID.TID 0000.0001)  Levels:    will be set later
(PID.TID 0000.0001)  Fields:    TRAC78
(PID.TID 0000.0001) Creating Output Stream: Phy58_day
(PID.TID 0000.0001) Output Frequency:      86400.000000 ; Phase:           0.000000
(PID.TID 0000.0001)  Averaging Freq.:      86400.000000 , Phase:           0.000000 , Cycle:   1
(PID.TID 0000.0001)  missing value:  1.234567000000E+05 ; for integers:   123456789
(PID.TID 0000.0001)  Levels:    will be set later
(PID.TID 0000.0001)  Fields:    TRAC79
(PID.TID 0000.0001) Creating Output Stream: Phy59_day
(PID.TID 0000.0001) Output Frequency:      86400.000000 ; Phase:           0.000000
(PID.TID 0000.0001)  Averaging Freq.:      86400.000000 , Phase:           0.000000 , Cycle:   1
(PID.TID 0000.0001)  missing value:  1.234567000000E+05 ; for integers:   123456789
(PID.TID 0000.0001)  Levels:    will be set later
(PID.TID 0000.0001)  Fields:    TRAC80
(PID.TID 0000.0001) Creating Output Stream: Phy60_day
(PID.TID 0000.0001) Output Frequency:      86400.000000 ; Phase:           0.000000
(PID.TID 0000.0001)  Averaging Freq.:      86400.000000 , Phase:           0.000000 , Cycle:   1
(PID.TID 0000.0001)  missing value:  1.234567000000E+05 ; for integers:   123456789
(PID.TID 0000.0001)  Levels:    will be set later
(PID.TID 0000.0001)  Fields:    TRAC81
(PID.TID 0000.0001) Creating Output Stream: Phy61_day
(PID.TID 0000.0001) Output Frequency:      86400.000000 ; Phase:           0.000000
(PID.TID 0000.0001)  Averaging Freq.:      86400.000000 , Phase:           0.000000 , Cycle:   1
(PID.TID 0000.0001)  missing value:  1.234567000000E+05 ; for integers:   123456789
(PID.TID 0000.0001)  Levels:    will be set later
(PID.TID 0000.0001)  Fields:    TRAC82
(PID.TID 0000.0001) Creating Output Stream: Phy62_day
(PID.TID 0000.0001) Output Frequency:      86400.000000 ; Phase:           0.000000
(PID.TID 0000.0001)  Averaging Freq.:      86400.000000 , Phase:           0.000000 , Cycle:   1
(PID.TID 0000.0001)  missing value:  1.234567000000E+05 ; for integers:   123456789
(PID.TID 0000.0001)  Levels:    will be set later
(PID.TID 0000.0001)  Fields:    TRAC83
(PID.TID 0000.0001) Creating Output Stream: Phy63_day
(PID.TID 0000.0001) Output Frequency:      86400.000000 ; Phase:           0.000000
(PID.TID 0000.0001)  Averaging Freq.:      86400.000000 , Phase:           0.000000 , Cycle:   1
(PID.TID 0000.0001)  missing value:  1.234567000000E+05 ; for integers:   123456789
(PID.TID 0000.0001)  Levels:    will be set later
(PID.TID 0000.0001)  Fields:    TRAC84
(PID.TID 0000.0001) Creating Output Stream: Phy64_day
(PID.TID 0000.0001) Output Frequency:      86400.000000 ; Phase:           0.000000
(PID.TID 0000.0001)  Averaging Freq.:      86400.000000 , Phase:           0.000000 , Cycle:   1
(PID.TID 0000.0001)  missing value:  1.234567000000E+05 ; for integers:   123456789
(PID.TID 0000.0001)  Levels:    will be set later
(PID.TID 0000.0001)  Fields:    TRAC85
(PID.TID 0000.0001) Creating Output Stream: Phy65_day
(PID.TID 0000.0001) Output Frequency:      86400.000000 ; Phase:           0.000000
(PID.TID 0000.0001)  Averaging Freq.:      86400.000000 , Phase:           0.000000 , Cycle:   1
(PID.TID 0000.0001)  missing value:  1.234567000000E+05 ; for integers:   123456789
(PID.TID 0000.0001)  Levels:    will be set later
(PID.TID 0000.0001)  Fields:    TRAC86
(PID.TID 0000.0001) Creating Output Stream: Phy66_day
(PID.TID 0000.0001) Output Frequency:      86400.000000 ; Phase:           0.000000
(PID.TID 0000.0001)  Averaging Freq.:      86400.000000 , Phase:           0.000000 , Cycle:   1
(PID.TID 0000.0001)  missing value:  1.234567000000E+05 ; for integers:   123456789
(PID.TID 0000.0001)  Levels:    will be set later
(PID.TID 0000.0001)  Fields:    TRAC87
(PID.TID 0000.0001) Creating Output Stream: Phy67_day
(PID.TID 0000.0001) Output Frequency:      86400.000000 ; Phase:           0.000000
(PID.TID 0000.0001)  Averaging Freq.:      86400.000000 , Phase:           0.000000 , Cycle:   1
(PID.TID 0000.0001)  missing value:  1.234567000000E+05 ; for integers:   123456789
(PID.TID 0000.0001)  Levels:    will be set later
(PID.TID 0000.0001)  Fields:    TRAC88
(PID.TID 0000.0001) Creating Output Stream: Phy68_day
(PID.TID 0000.0001) Output Frequency:      86400.000000 ; Phase:           0.000000
(PID.TID 0000.0001)  Averaging Freq.:      86400.000000 , Phase:           0.000000 , Cycle:   1
(PID.TID 0000.0001)  missing value:  1.234567000000E+05 ; for integers:   123456789
(PID.TID 0000.0001)  Levels:    will be set later
(PID.TID 0000.0001)  Fields:    TRAC89
(PID.TID 0000.0001) Creating Output Stream: Phy69_day
(PID.TID 0000.0001) Output Frequency:      86400.000000 ; Phase:           0.000000
(PID.TID 0000.0001)  Averaging Freq.:      86400.000000 , Phase:           0.000000 , Cycle:   1
(PID.TID 0000.0001)  missing value:  1.234567000000E+05 ; for integers:   123456789
(PID.TID 0000.0001)  Levels:    will be set later
(PID.TID 0000.0001)  Fields:    TRAC90
(PID.TID 0000.0001) Creating Output Stream: Phy70_day
(PID.TID 0000.0001) Output Frequency:      86400.000000 ; Phase:           0.000000
(PID.TID 0000.0001)  Averaging Freq.:      86400.000000 , Phase:           0.000000 , Cycle:   1
(PID.TID 0000.0001)  missing value:  1.234567000000E+05 ; for integers:   123456789
(PID.TID 0000.0001)  Levels:    will be set later
(PID.TID 0000.0001)  Fields:    TRAC91
(PID.TID 0000.0001) Creating Output Stream: Phy71_day
(PID.TID 0000.0001) Output Frequency:      86400.000000 ; Phase:           0.000000
(PID.TID 0000.0001)  Averaging Freq.:      86400.000000 , Phase:           0.000000 , Cycle:   1
(PID.TID 0000.0001)  missing value:  1.234567000000E+05 ; for integers:   123456789
(PID.TID 0000.0001)  Levels:    will be set later
(PID.TID 0000.0001)  Fields:    TRAC92
(PID.TID 0000.0001) Creating Output Stream: Phy72_day
(PID.TID 0000.0001) Output Frequency:      86400.000000 ; Phase:           0.000000
(PID.TID 0000.0001)  Averaging Freq.:      86400.000000 , Phase:           0.000000 , Cycle:   1
(PID.TID 0000.0001)  missing value:  1.234567000000E+05 ; for integers:   123456789
(PID.TID 0000.0001)  Levels:    will be set later
(PID.TID 0000.0001)  Fields:    TRAC93
(PID.TID 0000.0001) Creating Output Stream: Phy73_day
(PID.TID 0000.0001) Output Frequency:      86400.000000 ; Phase:           0.000000
(PID.TID 0000.0001)  Averaging Freq.:      86400.000000 , Phase:           0.000000 , Cycle:   1
(PID.TID 0000.0001)  missing value:  1.234567000000E+05 ; for integers:   123456789
(PID.TID 0000.0001)  Levels:    will be set later
(PID.TID 0000.0001)  Fields:    TRAC94
(PID.TID 0000.0001) Creating Output Stream: Phy74_day
(PID.TID 0000.0001) Output Frequency:      86400.000000 ; Phase:           0.000000
(PID.TID 0000.0001)  Averaging Freq.:      86400.000000 , Phase:           0.000000 , Cycle:   1
(PID.TID 0000.0001)  missing value:  1.234567000000E+05 ; for integers:   123456789
(PID.TID 0000.0001)  Levels:    will be set later
(PID.TID 0000.0001)  Fields:    TRAC95
(PID.TID 0000.0001) Creating Output Stream: Phy75_day
(PID.TID 0000.0001) Output Frequency:      86400.000000 ; Phase:           0.000000
(PID.TID 0000.0001)  Averaging Freq.:      86400.000000 , Phase:           0.000000 , Cycle:   1
(PID.TID 0000.0001)  missing value:  1.234567000000E+05 ; for integers:   123456789
(PID.TID 0000.0001)  Levels:    will be set later
(PID.TID 0000.0001)  Fields:    TRAC96
(PID.TID 0000.0001) Creating Output Stream: Phy76_day
(PID.TID 0000.0001) Output Frequency:      86400.000000 ; Phase:           0.000000
(PID.TID 0000.0001)  Averaging Freq.:      86400.000000 , Phase:           0.000000 , Cycle:   1
(PID.TID 0000.0001)  missing value:  1.234567000000E+05 ; for integers:   123456789
(PID.TID 0000.0001)  Levels:    will be set later
(PID.TID 0000.0001)  Fields:    TRAC97
(PID.TID 0000.0001) Creating Output Stream: Phy77_day
(PID.TID 0000.0001) Output Frequency:      86400.000000 ; Phase:           0.000000
(PID.TID 0000.0001)  Averaging Freq.:      86400.000000 , Phase:           0.000000 , Cycle:   1
(PID.TID 0000.0001)  missing value:  1.234567000000E+05 ; for integers:   123456789
(PID.TID 0000.0001)  Levels:    will be set later
(PID.TID 0000.0001)  Fields:    TRAC98
(PID.TID 0000.0001) Creating Output Stream: Phy78_day
(PID.TID 0000.0001) Output Frequency:      86400.000000 ; Phase:           0.000000
(PID.TID 0000.0001)  Averaging Freq.:      86400.000000 , Phase:           0.000000 , Cycle:   1
(PID.TID 0000.0001)  missing value:  1.234567000000E+05 ; for integers:   123456789
(PID.TID 0000.0001)  Levels:    will be set later
(PID.TID 0000.0001)  Fields:    TRAC99
(PID.TID 0000.0001) Creating Output Stream: PO4
(PID.TID 0000.0001) Output Frequency:     -86400.000000 ; Phase:           0.000000
(PID.TID 0000.0001)  Averaging Freq.:          0.000000 , Phase:           0.000000 , Cycle:   1
(PID.TID 0000.0001)  missing value:  1.234567000000E+05 ; for integers:   123456789
(PID.TID 0000.0001)  Levels:    will be set later
(PID.TID 0000.0001)  Fields:    TRAC01
(PID.TID 0000.0001) Creating Output Stream: NO3
(PID.TID 0000.0001) Output Frequency:     -86400.000000 ; Phase:           0.000000
(PID.TID 0000.0001)  Averaging Freq.:          0.000000 , Phase:           0.000000 , Cycle:   1
(PID.TID 0000.0001)  missing value:  1.234567000000E+05 ; for integers:   123456789
(PID.TID 0000.0001)  Levels:    will be set later
(PID.TID 0000.0001)  Fields:    TRAC02
(PID.TID 0000.0001) Creating Output Stream: FeT
(PID.TID 0000.0001) Output Frequency:     -86400.000000 ; Phase:           0.000000
(PID.TID 0000.0001)  Averaging Freq.:          0.000000 , Phase:           0.000000 , Cycle:   1
(PID.TID 0000.0001)  missing value:  1.234567000000E+05 ; for integers:   123456789
(PID.TID 0000.0001)  Levels:    will be set later
(PID.TID 0000.0001)  Fields:    TRAC03
(PID.TID 0000.0001) Creating Output Stream: SiO2
(PID.TID 0000.0001) Output Frequency:     -86400.000000 ; Phase:           0.000000
(PID.TID 0000.0001)  Averaging Freq.:          0.000000 , Phase:           0.000000 , Cycle:   1
(PID.TID 0000.0001)  missing value:  1.234567000000E+05 ; for integers:   123456789
(PID.TID 0000.0001)  Levels:    will be set later
(PID.TID 0000.0001)  Fields:    TRAC04
(PID.TID 0000.0001) Creating Output Stream: DOP
(PID.TID 0000.0001) Output Frequency:     -86400.000000 ; Phase:           0.000000
(PID.TID 0000.0001)  Averaging Freq.:          0.000000 , Phase:           0.000000 , Cycle:   1
(PID.TID 0000.0001)  missing value:  1.234567000000E+05 ; for integers:   123456789
(PID.TID 0000.0001)  Levels:    will be set later
(PID.TID 0000.0001)  Fields:    TRAC05
(PID.TID 0000.0001) Creating Output Stream: DON
(PID.TID 0000.0001) Output Frequency:     -86400.000000 ; Phase:           0.000000
(PID.TID 0000.0001)  Averaging Freq.:          0.000000 , Phase:           0.000000 , Cycle:   1
(PID.TID 0000.0001)  missing value:  1.234567000000E+05 ; for integers:   123456789
(PID.TID 0000.0001)  Levels:    will be set later
(PID.TID 0000.0001)  Fields:    TRAC06
(PID.TID 0000.0001) Creating Output Stream: DOFe
(PID.TID 0000.0001) Output Frequency:     -86400.000000 ; Phase:           0.000000
(PID.TID 0000.0001)  Averaging Freq.:          0.000000 , Phase:           0.000000 , Cycle:   1
(PID.TID 0000.0001)  missing value:  1.234567000000E+05 ; for integers:   123456789
(PID.TID 0000.0001)  Levels:    will be set later
(PID.TID 0000.0001)  Fields:    TRAC07
(PID.TID 0000.0001) Creating Output Stream: ZOO1P
(PID.TID 0000.0001) Output Frequency:     -86400.000000 ; Phase:           0.000000
(PID.TID 0000.0001)  Averaging Freq.:          0.000000 , Phase:           0.000000 , Cycle:   1
(PID.TID 0000.0001)  missing value:  1.234567000000E+05 ; for integers:   123456789
(PID.TID 0000.0001)  Levels:    will be set later
(PID.TID 0000.0001)  Fields:    TRAC08
(PID.TID 0000.0001) Creating Output Stream: ZOO1N
(PID.TID 0000.0001) Output Frequency:     -86400.000000 ; Phase:           0.000000
(PID.TID 0000.0001)  Averaging Freq.:          0.000000 , Phase:           0.000000 , Cycle:   1
(PID.TID 0000.0001)  missing value:  1.234567000000E+05 ; for integers:   123456789
(PID.TID 0000.0001)  Levels:    will be set later
(PID.TID 0000.0001)  Fields:    TRAC09
(PID.TID 0000.0001) Creating Output Stream: ZOO1Fe
(PID.TID 0000.0001) Output Frequency:     -86400.000000 ; Phase:           0.000000
(PID.TID 0000.0001)  Averaging Freq.:          0.000000 , Phase:           0.000000 , Cycle:   1
(PID.TID 0000.0001)  missing value:  1.234567000000E+05 ; for integers:   123456789
(PID.TID 0000.0001)  Levels:    will be set later
(PID.TID 0000.0001)  Fields:    TRAC10
(PID.TID 0000.0001) Creating Output Stream: ZOO1Si
(PID.TID 0000.0001) Output Frequency:     -86400.000000 ; Phase:           0.000000
(PID.TID 0000.0001)  Averaging Freq.:          0.000000 , Phase:           0.000000 , Cycle:   1
(PID.TID 0000.0001)  missing value:  1.234567000000E+05 ; for integers:   123456789
(PID.TID 0000.0001)  Levels:    will be set later
(PID.TID 0000.0001)  Fields:    TRAC11
(PID.TID 0000.0001) Creating Output Stream: ZOO2P
(PID.TID 0000.0001) Output Frequency:     -86400.000000 ; Phase:           0.000000
(PID.TID 0000.0001)  Averaging Freq.:          0.000000 , Phase:           0.000000 , Cycle:   1
(PID.TID 0000.0001)  missing value:  1.234567000000E+05 ; for integers:   123456789
(PID.TID 0000.0001)  Levels:    will be set later
(PID.TID 0000.0001)  Fields:    TRAC12
(PID.TID 0000.0001) Creating Output Stream: ZOO2N
(PID.TID 0000.0001) Output Frequency:     -86400.000000 ; Phase:           0.000000
(PID.TID 0000.0001)  Averaging Freq.:          0.000000 , Phase:           0.000000 , Cycle:   1
(PID.TID 0000.0001)  missing value:  1.234567000000E+05 ; for integers:   123456789
(PID.TID 0000.0001)  Levels:    will be set later
(PID.TID 0000.0001)  Fields:    TRAC13
(PID.TID 0000.0001) Creating Output Stream: ZOO2Fe
(PID.TID 0000.0001) Output Frequency:     -86400.000000 ; Phase:           0.000000
(PID.TID 0000.0001)  Averaging Freq.:          0.000000 , Phase:           0.000000 , Cycle:   1
(PID.TID 0000.0001)  missing value:  1.234567000000E+05 ; for integers:   123456789
(PID.TID 0000.0001)  Levels:    will be set later
(PID.TID 0000.0001)  Fields:    TRAC14
(PID.TID 0000.0001) Creating Output Stream: ZOO2Si
(PID.TID 0000.0001) Output Frequency:     -86400.000000 ; Phase:           0.000000
(PID.TID 0000.0001)  Averaging Freq.:          0.000000 , Phase:           0.000000 , Cycle:   1
(PID.TID 0000.0001)  missing value:  1.234567000000E+05 ; for integers:   123456789
(PID.TID 0000.0001)  Levels:    will be set later
(PID.TID 0000.0001)  Fields:    TRAC15
(PID.TID 0000.0001) Creating Output Stream: POP
(PID.TID 0000.0001) Output Frequency:     -86400.000000 ; Phase:           0.000000
(PID.TID 0000.0001)  Averaging Freq.:          0.000000 , Phase:           0.000000 , Cycle:   1
(PID.TID 0000.0001)  missing value:  1.234567000000E+05 ; for integers:   123456789
(PID.TID 0000.0001)  Levels:    will be set later
(PID.TID 0000.0001)  Fields:    TRAC16
(PID.TID 0000.0001) Creating Output Stream: PON
(PID.TID 0000.0001) Output Frequency:     -86400.000000 ; Phase:           0.000000
(PID.TID 0000.0001)  Averaging Freq.:          0.000000 , Phase:           0.000000 , Cycle:   1
(PID.TID 0000.0001)  missing value:  1.234567000000E+05 ; for integers:   123456789
(PID.TID 0000.0001)  Levels:    will be set later
(PID.TID 0000.0001)  Fields:    TRAC17
(PID.TID 0000.0001) Creating Output Stream: POFe
(PID.TID 0000.0001) Output Frequency:     -86400.000000 ; Phase:           0.000000
(PID.TID 0000.0001)  Averaging Freq.:          0.000000 , Phase:           0.000000 , Cycle:   1
(PID.TID 0000.0001)  missing value:  1.234567000000E+05 ; for integers:   123456789
(PID.TID 0000.0001)  Levels:    will be set later
(PID.TID 0000.0001)  Fields:    TRAC18
(PID.TID 0000.0001) Creating Output Stream: POSi
(PID.TID 0000.0001) Output Frequency:     -86400.000000 ; Phase:           0.000000
(PID.TID 0000.0001)  Averaging Freq.:          0.000000 , Phase:           0.000000 , Cycle:   1
(PID.TID 0000.0001)  missing value:  1.234567000000E+05 ; for integers:   123456789
(PID.TID 0000.0001)  Levels:    will be set later
(PID.TID 0000.0001)  Fields:    TRAC19
(PID.TID 0000.0001) Creating Output Stream: NH4
(PID.TID 0000.0001) Output Frequency:     -86400.000000 ; Phase:           0.000000
(PID.TID 0000.0001)  Averaging Freq.:          0.000000 , Phase:           0.000000 , Cycle:   1
(PID.TID 0000.0001)  missing value:  1.234567000000E+05 ; for integers:   123456789
(PID.TID 0000.0001)  Levels:    will be set later
(PID.TID 0000.0001)  Fields:    TRAC20
(PID.TID 0000.0001) Creating Output Stream: NO2
(PID.TID 0000.0001) Output Frequency:     -86400.000000 ; Phase:           0.000000
(PID.TID 0000.0001)  Averaging Freq.:          0.000000 , Phase:           0.000000 , Cycle:   1
(PID.TID 0000.0001)  missing value:  1.234567000000E+05 ; for integers:   123456789
(PID.TID 0000.0001)  Levels:    will be set later
(PID.TID 0000.0001)  Fields:    TRAC21
(PID.TID 0000.0001) Creating Output Stream: Phy01
(PID.TID 0000.0001) Output Frequency:     -86400.000000 ; Phase:           0.000000
(PID.TID 0000.0001)  Averaging Freq.:          0.000000 , Phase:           0.000000 , Cycle:   1
(PID.TID 0000.0001)  missing value:  1.234567000000E+05 ; for integers:   123456789
(PID.TID 0000.0001)  Levels:    will be set later
(PID.TID 0000.0001)  Fields:    TRAC22
(PID.TID 0000.0001) Creating Output Stream: Phy02
(PID.TID 0000.0001) Output Frequency:     -86400.000000 ; Phase:           0.000000
(PID.TID 0000.0001)  Averaging Freq.:          0.000000 , Phase:           0.000000 , Cycle:   1
(PID.TID 0000.0001)  missing value:  1.234567000000E+05 ; for integers:   123456789
(PID.TID 0000.0001)  Levels:    will be set later
(PID.TID 0000.0001)  Fields:    TRAC23
(PID.TID 0000.0001) Creating Output Stream: Phy03
(PID.TID 0000.0001) Output Frequency:     -86400.000000 ; Phase:           0.000000
(PID.TID 0000.0001)  Averaging Freq.:          0.000000 , Phase:           0.000000 , Cycle:   1
(PID.TID 0000.0001)  missing value:  1.234567000000E+05 ; for integers:   123456789
(PID.TID 0000.0001)  Levels:    will be set later
(PID.TID 0000.0001)  Fields:    TRAC24
(PID.TID 0000.0001) Creating Output Stream: Phy04
(PID.TID 0000.0001) Output Frequency:     -86400.000000 ; Phase:           0.000000
(PID.TID 0000.0001)  Averaging Freq.:          0.000000 , Phase:           0.000000 , Cycle:   1
(PID.TID 0000.0001)  missing value:  1.234567000000E+05 ; for integers:   123456789
(PID.TID 0000.0001)  Levels:    will be set later
(PID.TID 0000.0001)  Fields:    TRAC25
(PID.TID 0000.0001) Creating Output Stream: Phy05
(PID.TID 0000.0001) Output Frequency:     -86400.000000 ; Phase:           0.000000
(PID.TID 0000.0001)  Averaging Freq.:          0.000000 , Phase:           0.000000 , Cycle:   1
(PID.TID 0000.0001)  missing value:  1.234567000000E+05 ; for integers:   123456789
(PID.TID 0000.0001)  Levels:    will be set later
(PID.TID 0000.0001)  Fields:    TRAC26
(PID.TID 0000.0001) Creating Output Stream: Phy06
(PID.TID 0000.0001) Output Frequency:     -86400.000000 ; Phase:           0.000000
(PID.TID 0000.0001)  Averaging Freq.:          0.000000 , Phase:           0.000000 , Cycle:   1
(PID.TID 0000.0001)  missing value:  1.234567000000E+05 ; for integers:   123456789
(PID.TID 0000.0001)  Levels:    will be set later
(PID.TID 0000.0001)  Fields:    TRAC27
(PID.TID 0000.0001) Creating Output Stream: Phy07
(PID.TID 0000.0001) Output Frequency:     -86400.000000 ; Phase:           0.000000
(PID.TID 0000.0001)  Averaging Freq.:          0.000000 , Phase:           0.000000 , Cycle:   1
(PID.TID 0000.0001)  missing value:  1.234567000000E+05 ; for integers:   123456789
(PID.TID 0000.0001)  Levels:    will be set later
(PID.TID 0000.0001)  Fields:    TRAC28
(PID.TID 0000.0001) Creating Output Stream: Phy08
(PID.TID 0000.0001) Output Frequency:     -86400.000000 ; Phase:           0.000000
(PID.TID 0000.0001)  Averaging Freq.:          0.000000 , Phase:           0.000000 , Cycle:   1
(PID.TID 0000.0001)  missing value:  1.234567000000E+05 ; for integers:   123456789
(PID.TID 0000.0001)  Levels:    will be set later
(PID.TID 0000.0001)  Fields:    TRAC29
(PID.TID 0000.0001) Creating Output Stream: Phy09
(PID.TID 0000.0001) Output Frequency:     -86400.000000 ; Phase:           0.000000
(PID.TID 0000.0001)  Averaging Freq.:          0.000000 , Phase:           0.000000 , Cycle:   1
(PID.TID 0000.0001)  missing value:  1.234567000000E+05 ; for integers:   123456789
(PID.TID 0000.0001)  Levels:    will be set later
(PID.TID 0000.0001)  Fields:    TRAC30
(PID.TID 0000.0001) Creating Output Stream: Phy10
(PID.TID 0000.0001) Output Frequency:     -86400.000000 ; Phase:           0.000000
(PID.TID 0000.0001)  Averaging Freq.:          0.000000 , Phase:           0.000000 , Cycle:   1
(PID.TID 0000.0001)  missing value:  1.234567000000E+05 ; for integers:   123456789
(PID.TID 0000.0001)  Levels:    will be set later
(PID.TID 0000.0001)  Fields:    TRAC31
(PID.TID 0000.0001) Creating Output Stream: Phy11
(PID.TID 0000.0001) Output Frequency:     -86400.000000 ; Phase:           0.000000
(PID.TID 0000.0001)  Averaging Freq.:          0.000000 , Phase:           0.000000 , Cycle:   1
(PID.TID 0000.0001)  missing value:  1.234567000000E+05 ; for integers:   123456789
(PID.TID 0000.0001)  Levels:    will be set later
(PID.TID 0000.0001)  Fields:    TRAC32
(PID.TID 0000.0001) Creating Output Stream: Phy12
(PID.TID 0000.0001) Output Frequency:     -86400.000000 ; Phase:           0.000000
(PID.TID 0000.0001)  Averaging Freq.:          0.000000 , Phase:           0.000000 , Cycle:   1
(PID.TID 0000.0001)  missing value:  1.234567000000E+05 ; for integers:   123456789
(PID.TID 0000.0001)  Levels:    will be set later
(PID.TID 0000.0001)  Fields:    TRAC33
(PID.TID 0000.0001) Creating Output Stream: Phy13
(PID.TID 0000.0001) Output Frequency:     -86400.000000 ; Phase:           0.000000
(PID.TID 0000.0001)  Averaging Freq.:          0.000000 , Phase:           0.000000 , Cycle:   1
(PID.TID 0000.0001)  missing value:  1.234567000000E+05 ; for integers:   123456789
(PID.TID 0000.0001)  Levels:    will be set later
(PID.TID 0000.0001)  Fields:    TRAC34
(PID.TID 0000.0001) Creating Output Stream: Phy14
(PID.TID 0000.0001) Output Frequency:     -86400.000000 ; Phase:           0.000000
(PID.TID 0000.0001)  Averaging Freq.:          0.000000 , Phase:           0.000000 , Cycle:   1
(PID.TID 0000.0001)  missing value:  1.234567000000E+05 ; for integers:   123456789
(PID.TID 0000.0001)  Levels:    will be set later
(PID.TID 0000.0001)  Fields:    TRAC35
(PID.TID 0000.0001) Creating Output Stream: Phy15
(PID.TID 0000.0001) Output Frequency:     -86400.000000 ; Phase:           0.000000
(PID.TID 0000.0001)  Averaging Freq.:          0.000000 , Phase:           0.000000 , Cycle:   1
(PID.TID 0000.0001)  missing value:  1.234567000000E+05 ; for integers:   123456789
(PID.TID 0000.0001)  Levels:    will be set later
(PID.TID 0000.0001)  Fields:    TRAC36
(PID.TID 0000.0001) Creating Output Stream: Phy16
(PID.TID 0000.0001) Output Frequency:     -86400.000000 ; Phase:           0.000000
(PID.TID 0000.0001)  Averaging Freq.:          0.000000 , Phase:           0.000000 , Cycle:   1
(PID.TID 0000.0001)  missing value:  1.234567000000E+05 ; for integers:   123456789
(PID.TID 0000.0001)  Levels:    will be set later
(PID.TID 0000.0001)  Fields:    TRAC37
(PID.TID 0000.0001) Creating Output Stream: Phy17
(PID.TID 0000.0001) Output Frequency:     -86400.000000 ; Phase:           0.000000
(PID.TID 0000.0001)  Averaging Freq.:          0.000000 , Phase:           0.000000 , Cycle:   1
(PID.TID 0000.0001)  missing value:  1.234567000000E+05 ; for integers:   123456789
(PID.TID 0000.0001)  Levels:    will be set later
(PID.TID 0000.0001)  Fields:    TRAC38
(PID.TID 0000.0001) Creating Output Stream: Phy18
(PID.TID 0000.0001) Output Frequency:     -86400.000000 ; Phase:           0.000000
(PID.TID 0000.0001)  Averaging Freq.:          0.000000 , Phase:           0.000000 , Cycle:   1
(PID.TID 0000.0001)  missing value:  1.234567000000E+05 ; for integers:   123456789
(PID.TID 0000.0001)  Levels:    will be set later
(PID.TID 0000.0001)  Fields:    TRAC39
(PID.TID 0000.0001) Creating Output Stream: Phy19
(PID.TID 0000.0001) Output Frequency:     -86400.000000 ; Phase:           0.000000
(PID.TID 0000.0001)  Averaging Freq.:          0.000000 , Phase:           0.000000 , Cycle:   1
(PID.TID 0000.0001)  missing value:  1.234567000000E+05 ; for integers:   123456789
(PID.TID 0000.0001)  Levels:    will be set later
(PID.TID 0000.0001)  Fields:    TRAC40
(PID.TID 0000.0001) Creating Output Stream: Phy20
(PID.TID 0000.0001) Output Frequency:     -86400.000000 ; Phase:           0.000000
(PID.TID 0000.0001)  Averaging Freq.:          0.000000 , Phase:           0.000000 , Cycle:   1
(PID.TID 0000.0001)  missing value:  1.234567000000E+05 ; for integers:   123456789
(PID.TID 0000.0001)  Levels:    will be set later
(PID.TID 0000.0001)  Fields:    TRAC41
(PID.TID 0000.0001) Creating Output Stream: Phy21
(PID.TID 0000.0001) Output Frequency:     -86400.000000 ; Phase:           0.000000
(PID.TID 0000.0001)  Averaging Freq.:          0.000000 , Phase:           0.000000 , Cycle:   1
(PID.TID 0000.0001)  missing value:  1.234567000000E+05 ; for integers:   123456789
(PID.TID 0000.0001)  Levels:    will be set later
(PID.TID 0000.0001)  Fields:    TRAC42
(PID.TID 0000.0001) Creating Output Stream: Phy22
(PID.TID 0000.0001) Output Frequency:     -86400.000000 ; Phase:           0.000000
(PID.TID 0000.0001)  Averaging Freq.:          0.000000 , Phase:           0.000000 , Cycle:   1
(PID.TID 0000.0001)  missing value:  1.234567000000E+05 ; for integers:   123456789
(PID.TID 0000.0001)  Levels:    will be set later
(PID.TID 0000.0001)  Fields:    TRAC43
(PID.TID 0000.0001) Creating Output Stream: Phy23
(PID.TID 0000.0001) Output Frequency:     -86400.000000 ; Phase:           0.000000
(PID.TID 0000.0001)  Averaging Freq.:          0.000000 , Phase:           0.000000 , Cycle:   1
(PID.TID 0000.0001)  missing value:  1.234567000000E+05 ; for integers:   123456789
(PID.TID 0000.0001)  Levels:    will be set later
(PID.TID 0000.0001)  Fields:    TRAC44
(PID.TID 0000.0001) Creating Output Stream: Phy24
(PID.TID 0000.0001) Output Frequency:     -86400.000000 ; Phase:           0.000000
(PID.TID 0000.0001)  Averaging Freq.:          0.000000 , Phase:           0.000000 , Cycle:   1
(PID.TID 0000.0001)  missing value:  1.234567000000E+05 ; for integers:   123456789
(PID.TID 0000.0001)  Levels:    will be set later
(PID.TID 0000.0001)  Fields:    TRAC45
(PID.TID 0000.0001) Creating Output Stream: Phy25
(PID.TID 0000.0001) Output Frequency:     -86400.000000 ; Phase:           0.000000
(PID.TID 0000.0001)  Averaging Freq.:          0.000000 , Phase:           0.000000 , Cycle:   1
(PID.TID 0000.0001)  missing value:  1.234567000000E+05 ; for integers:   123456789
(PID.TID 0000.0001)  Levels:    will be set later
(PID.TID 0000.0001)  Fields:    TRAC46
(PID.TID 0000.0001) Creating Output Stream: Phy26
(PID.TID 0000.0001) Output Frequency:     -86400.000000 ; Phase:           0.000000
(PID.TID 0000.0001)  Averaging Freq.:          0.000000 , Phase:           0.000000 , Cycle:   1
(PID.TID 0000.0001)  missing value:  1.234567000000E+05 ; for integers:   123456789
(PID.TID 0000.0001)  Levels:    will be set later
(PID.TID 0000.0001)  Fields:    TRAC47
(PID.TID 0000.0001) Creating Output Stream: Phy27
(PID.TID 0000.0001) Output Frequency:     -86400.000000 ; Phase:           0.000000
(PID.TID 0000.0001)  Averaging Freq.:          0.000000 , Phase:           0.000000 , Cycle:   1
(PID.TID 0000.0001)  missing value:  1.234567000000E+05 ; for integers:   123456789
(PID.TID 0000.0001)  Levels:    will be set later
(PID.TID 0000.0001)  Fields:    TRAC48
(PID.TID 0000.0001) Creating Output Stream: Phy28
(PID.TID 0000.0001) Output Frequency:     -86400.000000 ; Phase:           0.000000
(PID.TID 0000.0001)  Averaging Freq.:          0.000000 , Phase:           0.000000 , Cycle:   1
(PID.TID 0000.0001)  missing value:  1.234567000000E+05 ; for integers:   123456789
(PID.TID 0000.0001)  Levels:    will be set later
(PID.TID 0000.0001)  Fields:    TRAC49
(PID.TID 0000.0001) Creating Output Stream: Phy29
(PID.TID 0000.0001) Output Frequency:     -86400.000000 ; Phase:           0.000000
(PID.TID 0000.0001)  Averaging Freq.:          0.000000 , Phase:           0.000000 , Cycle:   1
(PID.TID 0000.0001)  missing value:  1.234567000000E+05 ; for integers:   123456789
(PID.TID 0000.0001)  Levels:    will be set later
(PID.TID 0000.0001)  Fields:    TRAC50
(PID.TID 0000.0001) Creating Output Stream: Phy30
(PID.TID 0000.0001) Output Frequency:     -86400.000000 ; Phase:           0.000000
(PID.TID 0000.0001)  Averaging Freq.:          0.000000 , Phase:           0.000000 , Cycle:   1
(PID.TID 0000.0001)  missing value:  1.234567000000E+05 ; for integers:   123456789
(PID.TID 0000.0001)  Levels:    will be set later
(PID.TID 0000.0001)  Fields:    TRAC51
(PID.TID 0000.0001) Creating Output Stream: Phy31
(PID.TID 0000.0001) Output Frequency:     -86400.000000 ; Phase:           0.000000
(PID.TID 0000.0001)  Averaging Freq.:          0.000000 , Phase:           0.000000 , Cycle:   1
(PID.TID 0000.0001)  missing value:  1.234567000000E+05 ; for integers:   123456789
(PID.TID 0000.0001)  Levels:    will be set later
(PID.TID 0000.0001)  Fields:    TRAC52
(PID.TID 0000.0001) Creating Output Stream: Phy32
(PID.TID 0000.0001) Output Frequency:     -86400.000000 ; Phase:           0.000000
(PID.TID 0000.0001)  Averaging Freq.:          0.000000 , Phase:           0.000000 , Cycle:   1
(PID.TID 0000.0001)  missing value:  1.234567000000E+05 ; for integers:   123456789
(PID.TID 0000.0001)  Levels:    will be set later
(PID.TID 0000.0001)  Fields:    TRAC53
(PID.TID 0000.0001) Creating Output Stream: Phy33
(PID.TID 0000.0001) Output Frequency:     -86400.000000 ; Phase:           0.000000
(PID.TID 0000.0001)  Averaging Freq.:          0.000000 , Phase:           0.000000 , Cycle:   1
(PID.TID 0000.0001)  missing value:  1.234567000000E+05 ; for integers:   123456789
(PID.TID 0000.0001)  Levels:    will be set later
(PID.TID 0000.0001)  Fields:    TRAC54
(PID.TID 0000.0001) Creating Output Stream: Phy34
(PID.TID 0000.0001) Output Frequency:     -86400.000000 ; Phase:           0.000000
(PID.TID 0000.0001)  Averaging Freq.:          0.000000 , Phase:           0.000000 , Cycle:   1
(PID.TID 0000.0001)  missing value:  1.234567000000E+05 ; for integers:   123456789
(PID.TID 0000.0001)  Levels:    will be set later
(PID.TID 0000.0001)  Fields:    TRAC55
(PID.TID 0000.0001) Creating Output Stream: Phy35
(PID.TID 0000.0001) Output Frequency:     -86400.000000 ; Phase:           0.000000
(PID.TID 0000.0001)  Averaging Freq.:          0.000000 , Phase:           0.000000 , Cycle:   1
(PID.TID 0000.0001)  missing value:  1.234567000000E+05 ; for integers:   123456789
(PID.TID 0000.0001)  Levels:    will be set later
(PID.TID 0000.0001)  Fields:    TRAC56
(PID.TID 0000.0001) Creating Output Stream: Phy36
(PID.TID 0000.0001) Output Frequency:     -86400.000000 ; Phase:           0.000000
(PID.TID 0000.0001)  Averaging Freq.:          0.000000 , Phase:           0.000000 , Cycle:   1
(PID.TID 0000.0001)  missing value:  1.234567000000E+05 ; for integers:   123456789
(PID.TID 0000.0001)  Levels:    will be set later
(PID.TID 0000.0001)  Fields:    TRAC57
(PID.TID 0000.0001) Creating Output Stream: Phy37
(PID.TID 0000.0001) Output Frequency:     -86400.000000 ; Phase:           0.000000
(PID.TID 0000.0001)  Averaging Freq.:          0.000000 , Phase:           0.000000 , Cycle:   1
(PID.TID 0000.0001)  missing value:  1.234567000000E+05 ; for integers:   123456789
(PID.TID 0000.0001)  Levels:    will be set later
(PID.TID 0000.0001)  Fields:    TRAC58
(PID.TID 0000.0001) Creating Output Stream: Phy38
(PID.TID 0000.0001) Output Frequency:     -86400.000000 ; Phase:           0.000000
(PID.TID 0000.0001)  Averaging Freq.:          0.000000 , Phase:           0.000000 , Cycle:   1
(PID.TID 0000.0001)  missing value:  1.234567000000E+05 ; for integers:   123456789
(PID.TID 0000.0001)  Levels:    will be set later
(PID.TID 0000.0001)  Fields:    TRAC59
(PID.TID 0000.0001) Creating Output Stream: Phy39
(PID.TID 0000.0001) Output Frequency:     -86400.000000 ; Phase:           0.000000
(PID.TID 0000.0001)  Averaging Freq.:          0.000000 , Phase:           0.000000 , Cycle:   1
(PID.TID 0000.0001)  missing value:  1.234567000000E+05 ; for integers:   123456789
(PID.TID 0000.0001)  Levels:    will be set later
(PID.TID 0000.0001)  Fields:    TRAC60
(PID.TID 0000.0001) Creating Output Stream: Phy40
(PID.TID 0000.0001) Output Frequency:     -86400.000000 ; Phase:           0.000000
(PID.TID 0000.0001)  Averaging Freq.:          0.000000 , Phase:           0.000000 , Cycle:   1
(PID.TID 0000.0001)  missing value:  1.234567000000E+05 ; for integers:   123456789
(PID.TID 0000.0001)  Levels:    will be set later
(PID.TID 0000.0001)  Fields:    TRAC61
(PID.TID 0000.0001) Creating Output Stream: Phy41
(PID.TID 0000.0001) Output Frequency:     -86400.000000 ; Phase:           0.000000
(PID.TID 0000.0001)  Averaging Freq.:          0.000000 , Phase:           0.000000 , Cycle:   1
(PID.TID 0000.0001)  missing value:  1.234567000000E+05 ; for integers:   123456789
(PID.TID 0000.0001)  Levels:    will be set later
(PID.TID 0000.0001)  Fields:    TRAC62
(PID.TID 0000.0001) Creating Output Stream: Phy42
(PID.TID 0000.0001) Output Frequency:     -86400.000000 ; Phase:           0.000000
(PID.TID 0000.0001)  Averaging Freq.:          0.000000 , Phase:           0.000000 , Cycle:   1
(PID.TID 0000.0001)  missing value:  1.234567000000E+05 ; for integers:   123456789
(PID.TID 0000.0001)  Levels:    will be set later
(PID.TID 0000.0001)  Fields:    TRAC63
(PID.TID 0000.0001) Creating Output Stream: Phy43
(PID.TID 0000.0001) Output Frequency:     -86400.000000 ; Phase:           0.000000
(PID.TID 0000.0001)  Averaging Freq.:          0.000000 , Phase:           0.000000 , Cycle:   1
(PID.TID 0000.0001)  missing value:  1.234567000000E+05 ; for integers:   123456789
(PID.TID 0000.0001)  Levels:    will be set later
(PID.TID 0000.0001)  Fields:    TRAC64
(PID.TID 0000.0001) Creating Output Stream: Phy44
(PID.TID 0000.0001) Output Frequency:     -86400.000000 ; Phase:           0.000000
(PID.TID 0000.0001)  Averaging Freq.:          0.000000 , Phase:           0.000000 , Cycle:   1
(PID.TID 0000.0001)  missing value:  1.234567000000E+05 ; for integers:   123456789
(PID.TID 0000.0001)  Levels:    will be set later
(PID.TID 0000.0001)  Fields:    TRAC65
(PID.TID 0000.0001) Creating Output Stream: Phy45
(PID.TID 0000.0001) Output Frequency:     -86400.000000 ; Phase:           0.000000
(PID.TID 0000.0001)  Averaging Freq.:          0.000000 , Phase:           0.000000 , Cycle:   1
(PID.TID 0000.0001)  missing value:  1.234567000000E+05 ; for integers:   123456789
(PID.TID 0000.0001)  Levels:    will be set later
(PID.TID 0000.0001)  Fields:    TRAC66
(PID.TID 0000.0001) Creating Output Stream: Phy46
(PID.TID 0000.0001) Output Frequency:     -86400.000000 ; Phase:           0.000000
(PID.TID 0000.0001)  Averaging Freq.:          0.000000 , Phase:           0.000000 , Cycle:   1
(PID.TID 0000.0001)  missing value:  1.234567000000E+05 ; for integers:   123456789
(PID.TID 0000.0001)  Levels:    will be set later
(PID.TID 0000.0001)  Fields:    TRAC67
(PID.TID 0000.0001) Creating Output Stream: Phy47
(PID.TID 0000.0001) Output Frequency:     -86400.000000 ; Phase:           0.000000
(PID.TID 0000.0001)  Averaging Freq.:          0.000000 , Phase:           0.000000 , Cycle:   1
(PID.TID 0000.0001)  missing value:  1.234567000000E+05 ; for integers:   123456789
(PID.TID 0000.0001)  Levels:    will be set later
(PID.TID 0000.0001)  Fields:    TRAC68
(PID.TID 0000.0001) Creating Output Stream: Phy48
(PID.TID 0000.0001) Output Frequency:     -86400.000000 ; Phase:           0.000000
(PID.TID 0000.0001)  Averaging Freq.:          0.000000 , Phase:           0.000000 , Cycle:   1
(PID.TID 0000.0001)  missing value:  1.234567000000E+05 ; for integers:   123456789
(PID.TID 0000.0001)  Levels:    will be set later
(PID.TID 0000.0001)  Fields:    TRAC69
(PID.TID 0000.0001) Creating Output Stream: Phy49
(PID.TID 0000.0001) Output Frequency:     -86400.000000 ; Phase:           0.000000
(PID.TID 0000.0001)  Averaging Freq.:          0.000000 , Phase:           0.000000 , Cycle:   1
(PID.TID 0000.0001)  missing value:  1.234567000000E+05 ; for integers:   123456789
(PID.TID 0000.0001)  Levels:    will be set later
(PID.TID 0000.0001)  Fields:    TRAC70
(PID.TID 0000.0001) Creating Output Stream: Phy50
(PID.TID 0000.0001) Output Frequency:     -86400.000000 ; Phase:           0.000000
(PID.TID 0000.0001)  Averaging Freq.:          0.000000 , Phase:           0.000000 , Cycle:   1
(PID.TID 0000.0001)  missing value:  1.234567000000E+05 ; for integers:   123456789
(PID.TID 0000.0001)  Levels:    will be set later
(PID.TID 0000.0001)  Fields:    TRAC71
(PID.TID 0000.0001) Creating Output Stream: Phy51
(PID.TID 0000.0001) Output Frequency:     -86400.000000 ; Phase:           0.000000
(PID.TID 0000.0001)  Averaging Freq.:          0.000000 , Phase:           0.000000 , Cycle:   1
(PID.TID 0000.0001)  missing value:  1.234567000000E+05 ; for integers:   123456789
(PID.TID 0000.0001)  Levels:    will be set later
(PID.TID 0000.0001)  Fields:    TRAC72
(PID.TID 0000.0001) Creating Output Stream: Phy52
(PID.TID 0000.0001) Output Frequency:     -86400.000000 ; Phase:           0.000000
(PID.TID 0000.0001)  Averaging Freq.:          0.000000 , Phase:           0.000000 , Cycle:   1
(PID.TID 0000.0001)  missing value:  1.234567000000E+05 ; for integers:   123456789
(PID.TID 0000.0001)  Levels:    will be set later
(PID.TID 0000.0001)  Fields:    TRAC73
(PID.TID 0000.0001) Creating Output Stream: Phy53
(PID.TID 0000.0001) Output Frequency:     -86400.000000 ; Phase:           0.000000
(PID.TID 0000.0001)  Averaging Freq.:          0.000000 , Phase:           0.000000 , Cycle:   1
(PID.TID 0000.0001)  missing value:  1.234567000000E+05 ; for integers:   123456789
(PID.TID 0000.0001)  Levels:    will be set later
(PID.TID 0000.0001)  Fields:    TRAC74
(PID.TID 0000.0001) Creating Output Stream: Phy54
(PID.TID 0000.0001) Output Frequency:     -86400.000000 ; Phase:           0.000000
(PID.TID 0000.0001)  Averaging Freq.:          0.000000 , Phase:           0.000000 , Cycle:   1
(PID.TID 0000.0001)  missing value:  1.234567000000E+05 ; for integers:   123456789
(PID.TID 0000.0001)  Levels:    will be set later
(PID.TID 0000.0001)  Fields:    TRAC75
(PID.TID 0000.0001) Creating Output Stream: Phy55
(PID.TID 0000.0001) Output Frequency:     -86400.000000 ; Phase:           0.000000
(PID.TID 0000.0001)  Averaging Freq.:          0.000000 , Phase:           0.000000 , Cycle:   1
(PID.TID 0000.0001)  missing value:  1.234567000000E+05 ; for integers:   123456789
(PID.TID 0000.0001)  Levels:    will be set later
(PID.TID 0000.0001)  Fields:    TRAC76
(PID.TID 0000.0001) Creating Output Stream: Phy56
(PID.TID 0000.0001) Output Frequency:     -86400.000000 ; Phase:           0.000000
(PID.TID 0000.0001)  Averaging Freq.:          0.000000 , Phase:           0.000000 , Cycle:   1
(PID.TID 0000.0001)  missing value:  1.234567000000E+05 ; for integers:   123456789
(PID.TID 0000.0001)  Levels:    will be set later
(PID.TID 0000.0001)  Fields:    TRAC77
(PID.TID 0000.0001) Creating Output Stream: Phy57
(PID.TID 0000.0001) Output Frequency:     -86400.000000 ; Phase:           0.000000
(PID.TID 0000.0001)  Averaging Freq.:          0.000000 , Phase:           0.000000 , Cycle:   1
(PID.TID 0000.0001)  missing value:  1.234567000000E+05 ; for integers:   123456789
(PID.TID 0000.0001)  Levels:    will be set later
(PID.TID 0000.0001)  Fields:    TRAC78
(PID.TID 0000.0001) Creating Output Stream: Phy58
(PID.TID 0000.0001) Output Frequency:     -86400.000000 ; Phase:           0.000000
(PID.TID 0000.0001)  Averaging Freq.:          0.000000 , Phase:           0.000000 , Cycle:   1
(PID.TID 0000.0001)  missing value:  1.234567000000E+05 ; for integers:   123456789
(PID.TID 0000.0001)  Levels:    will be set later
(PID.TID 0000.0001)  Fields:    TRAC79
(PID.TID 0000.0001) Creating Output Stream: Phy59
(PID.TID 0000.0001) Output Frequency:     -86400.000000 ; Phase:           0.000000
(PID.TID 0000.0001)  Averaging Freq.:          0.000000 , Phase:           0.000000 , Cycle:   1
(PID.TID 0000.0001)  missing value:  1.234567000000E+05 ; for integers:   123456789
(PID.TID 0000.0001)  Levels:    will be set later
(PID.TID 0000.0001)  Fields:    TRAC80
(PID.TID 0000.0001) Creating Output Stream: Phy60
(PID.TID 0000.0001) Output Frequency:     -86400.000000 ; Phase:           0.000000
(PID.TID 0000.0001)  Averaging Freq.:          0.000000 , Phase:           0.000000 , Cycle:   1
(PID.TID 0000.0001)  missing value:  1.234567000000E+05 ; for integers:   123456789
(PID.TID 0000.0001)  Levels:    will be set later
(PID.TID 0000.0001)  Fields:    TRAC81
(PID.TID 0000.0001) Creating Output Stream: Phy61
(PID.TID 0000.0001) Output Frequency:     -86400.000000 ; Phase:           0.000000
(PID.TID 0000.0001)  Averaging Freq.:          0.000000 , Phase:           0.000000 , Cycle:   1
(PID.TID 0000.0001)  missing value:  1.234567000000E+05 ; for integers:   123456789
(PID.TID 0000.0001)  Levels:    will be set later
(PID.TID 0000.0001)  Fields:    TRAC82
(PID.TID 0000.0001) Creating Output Stream: Phy62
(PID.TID 0000.0001) Output Frequency:     -86400.000000 ; Phase:           0.000000
(PID.TID 0000.0001)  Averaging Freq.:          0.000000 , Phase:           0.000000 , Cycle:   1
(PID.TID 0000.0001)  missing value:  1.234567000000E+05 ; for integers:   123456789
(PID.TID 0000.0001)  Levels:    will be set later
(PID.TID 0000.0001)  Fields:    TRAC83
(PID.TID 0000.0001) Creating Output Stream: Phy63
(PID.TID 0000.0001) Output Frequency:     -86400.000000 ; Phase:           0.000000
(PID.TID 0000.0001)  Averaging Freq.:          0.000000 , Phase:           0.000000 , Cycle:   1
(PID.TID 0000.0001)  missing value:  1.234567000000E+05 ; for integers:   123456789
(PID.TID 0000.0001)  Levels:    will be set later
(PID.TID 0000.0001)  Fields:    TRAC84
(PID.TID 0000.0001) Creating Output Stream: Phy64
(PID.TID 0000.0001) Output Frequency:     -86400.000000 ; Phase:           0.000000
(PID.TID 0000.0001)  Averaging Freq.:          0.000000 , Phase:           0.000000 , Cycle:   1
(PID.TID 0000.0001)  missing value:  1.234567000000E+05 ; for integers:   123456789
(PID.TID 0000.0001)  Levels:    will be set later
(PID.TID 0000.0001)  Fields:    TRAC85
(PID.TID 0000.0001) Creating Output Stream: Phy65
(PID.TID 0000.0001) Output Frequency:     -86400.000000 ; Phase:           0.000000
(PID.TID 0000.0001)  Averaging Freq.:          0.000000 , Phase:           0.000000 , Cycle:   1
(PID.TID 0000.0001)  missing value:  1.234567000000E+05 ; for integers:   123456789
(PID.TID 0000.0001)  Levels:    will be set later
(PID.TID 0000.0001)  Fields:    TRAC86
(PID.TID 0000.0001) Creating Output Stream: Phy66
(PID.TID 0000.0001) Output Frequency:     -86400.000000 ; Phase:           0.000000
(PID.TID 0000.0001)  Averaging Freq.:          0.000000 , Phase:           0.000000 , Cycle:   1
(PID.TID 0000.0001)  missing value:  1.234567000000E+05 ; for integers:   123456789
(PID.TID 0000.0001)  Levels:    will be set later
(PID.TID 0000.0001)  Fields:    TRAC87
(PID.TID 0000.0001) Creating Output Stream: Phy67
(PID.TID 0000.0001) Output Frequency:     -86400.000000 ; Phase:           0.000000
(PID.TID 0000.0001)  Averaging Freq.:          0.000000 , Phase:           0.000000 , Cycle:   1
(PID.TID 0000.0001)  missing value:  1.234567000000E+05 ; for integers:   123456789
(PID.TID 0000.0001)  Levels:    will be set later
(PID.TID 0000.0001)  Fields:    TRAC88
(PID.TID 0000.0001) Creating Output Stream: Phy68
(PID.TID 0000.0001) Output Frequency:     -86400.000000 ; Phase:           0.000000
(PID.TID 0000.0001)  Averaging Freq.:          0.000000 , Phase:           0.000000 , Cycle:   1
(PID.TID 0000.0001)  missing value:  1.234567000000E+05 ; for integers:   123456789
(PID.TID 0000.0001)  Levels:    will be set later
(PID.TID 0000.0001)  Fields:    TRAC89
(PID.TID 0000.0001) Creating Output Stream: Phy69
(PID.TID 0000.0001) Output Frequency:     -86400.000000 ; Phase:           0.000000
(PID.TID 0000.0001)  Averaging Freq.:          0.000000 , Phase:           0.000000 , Cycle:   1
(PID.TID 0000.0001)  missing value:  1.234567000000E+05 ; for integers:   123456789
(PID.TID 0000.0001)  Levels:    will be set later
(PID.TID 0000.0001)  Fields:    TRAC90
(PID.TID 0000.0001) Creating Output Stream: Phy70
(PID.TID 0000.0001) Output Frequency:     -86400.000000 ; Phase:           0.000000
(PID.TID 0000.0001)  Averaging Freq.:          0.000000 , Phase:           0.000000 , Cycle:   1
(PID.TID 0000.0001)  missing value:  1.234567000000E+05 ; for integers:   123456789
(PID.TID 0000.0001)  Levels:    will be set later
(PID.TID 0000.0001)  Fields:    TRAC91
(PID.TID 0000.0001) Creating Output Stream: Phy71
(PID.TID 0000.0001) Output Frequency:     -86400.000000 ; Phase:           0.000000
(PID.TID 0000.0001)  Averaging Freq.:          0.000000 , Phase:           0.000000 , Cycle:   1
(PID.TID 0000.0001)  missing value:  1.234567000000E+05 ; for integers:   123456789
(PID.TID 0000.0001)  Levels:    will be set later
(PID.TID 0000.0001)  Fields:    TRAC92
(PID.TID 0000.0001) Creating Output Stream: Phy72
(PID.TID 0000.0001) Output Frequency:     -86400.000000 ; Phase:           0.000000
(PID.TID 0000.0001)  Averaging Freq.:          0.000000 , Phase:           0.000000 , Cycle:   1
(PID.TID 0000.0001)  missing value:  1.234567000000E+05 ; for integers:   123456789
(PID.TID 0000.0001)  Levels:    will be set later
(PID.TID 0000.0001)  Fields:    TRAC93
(PID.TID 0000.0001) Creating Output Stream: Phy73
(PID.TID 0000.0001) Output Frequency:     -86400.000000 ; Phase:           0.000000
(PID.TID 0000.0001)  Averaging Freq.:          0.000000 , Phase:           0.000000 , Cycle:   1
(PID.TID 0000.0001)  missing value:  1.234567000000E+05 ; for integers:   123456789
(PID.TID 0000.0001)  Levels:    will be set later
(PID.TID 0000.0001)  Fields:    TRAC94
(PID.TID 0000.0001) Creating Output Stream: Phy74
(PID.TID 0000.0001) Output Frequency:     -86400.000000 ; Phase:           0.000000
(PID.TID 0000.0001)  Averaging Freq.:          0.000000 , Phase:           0.000000 , Cycle:   1
(PID.TID 0000.0001)  missing value:  1.234567000000E+05 ; for integers:   123456789
(PID.TID 0000.0001)  Levels:    will be set later
(PID.TID 0000.0001)  Fields:    TRAC95
(PID.TID 0000.0001) Creating Output Stream: Phy75
(PID.TID 0000.0001) Output Frequency:     -86400.000000 ; Phase:           0.000000
(PID.TID 0000.0001)  Averaging Freq.:          0.000000 , Phase:           0.000000 , Cycle:   1
(PID.TID 0000.0001)  missing value:  1.234567000000E+05 ; for integers:   123456789
(PID.TID 0000.0001)  Levels:    will be set later
(PID.TID 0000.0001)  Fields:    TRAC96
(PID.TID 0000.0001) Creating Output Stream: Phy76
(PID.TID 0000.0001) Output Frequency:     -86400.000000 ; Phase:           0.000000
(PID.TID 0000.0001)  Averaging Freq.:          0.000000 , Phase:           0.000000 , Cycle:   1
(PID.TID 0000.0001)  missing value:  1.234567000000E+05 ; for integers:   123456789
(PID.TID 0000.0001)  Levels:    will be set later
(PID.TID 0000.0001)  Fields:    TRAC97
(PID.TID 0000.0001) Creating Output Stream: Phy77
(PID.TID 0000.0001) Output Frequency:     -86400.000000 ; Phase:           0.000000
(PID.TID 0000.0001)  Averaging Freq.:          0.000000 , Phase:           0.000000 , Cycle:   1
(PID.TID 0000.0001)  missing value:  1.234567000000E+05 ; for integers:   123456789
(PID.TID 0000.0001)  Levels:    will be set later
(PID.TID 0000.0001)  Fields:    TRAC98
(PID.TID 0000.0001) Creating Output Stream: Phy78
(PID.TID 0000.0001) Output Frequency:     -86400.000000 ; Phase:           0.000000
(PID.TID 0000.0001)  Averaging Freq.:          0.000000 , Phase:           0.000000 , Cycle:   1
(PID.TID 0000.0001)  missing value:  1.234567000000E+05 ; for integers:   123456789
(PID.TID 0000.0001)  Levels:    will be set later
(PID.TID 0000.0001)  Fields:    TRAC99
(PID.TID 0000.0001) -----------------------------------------------------
(PID.TID 0000.0001)  DIAGNOSTICS_READPARMS: statistics diags. summary:
(PID.TID 0000.0001) Creating Stats. Output Stream: SIqsw_stat
(PID.TID 0000.0001) Output Frequency:       1200.000000 ; Phase:           0.000000
(PID.TID 0000.0001)  Regions:   0
(PID.TID 0000.0001)  Fields:    SIqsw
(PID.TID 0000.0001) Creating Stats. Output Stream: oceQsw_stat
(PID.TID 0000.0001) Output Frequency:       1200.000000 ; Phase:           0.000000
(PID.TID 0000.0001)  Regions:   0
(PID.TID 0000.0001)  Fields:    oceQsw
(PID.TID 0000.0001) Creating Stats. Output Stream: PAR_stat
(PID.TID 0000.0001) Output Frequency:       1200.000000 ; Phase:           0.000000
(PID.TID 0000.0001)  Regions:   0
(PID.TID 0000.0001)  Fields:    PAR
(PID.TID 0000.0001) Creating Stats. Output Stream: EXFswnet_stat
(PID.TID 0000.0001) Output Frequency:       1200.000000 ; Phase:           0.000000
(PID.TID 0000.0001)  Regions:   0
(PID.TID 0000.0001)  Fields:    EXFswnet
(PID.TID 0000.0001) Creating Stats. Output Stream: EXFswdn_stat
(PID.TID 0000.0001) Output Frequency:       1200.000000 ; Phase:           0.000000
(PID.TID 0000.0001)  Regions:   0
(PID.TID 0000.0001)  Fields:    EXFswdn
(PID.TID 0000.0001) Creating Stats. Output Stream: THETA_stat
(PID.TID 0000.0001) Output Frequency:       1200.000000 ; Phase:           0.000000
(PID.TID 0000.0001)  Regions:   0
(PID.TID 0000.0001)  Fields:    THETA
(PID.TID 0000.0001) Creating Stats. Output Stream: SALTanom_stat
(PID.TID 0000.0001) Output Frequency:       1200.000000 ; Phase:           0.000000
(PID.TID 0000.0001)  Regions:   0
(PID.TID 0000.0001)  Fields:    SALTanom
(PID.TID 0000.0001) Creating Stats. Output Stream: PP_stat
(PID.TID 0000.0001) Output Frequency:       1200.000000 ; Phase:           0.000000
(PID.TID 0000.0001)  Regions:   0
(PID.TID 0000.0001)  Fields:    PP
(PID.TID 0000.0001) Creating Stats. Output Stream: Phy58_stat
(PID.TID 0000.0001) Output Frequency:       1200.000000 ; Phase:           0.000000
(PID.TID 0000.0001)  Regions:   0
(PID.TID 0000.0001)  Fields:    TRAC79
(PID.TID 0000.0001) Creating Stats. Output Stream: ETAN_stat
(PID.TID 0000.0001) Output Frequency:       1200.000000 ; Phase:           0.000000
(PID.TID 0000.0001)  Regions:   0
(PID.TID 0000.0001)  Fields:    ETAN
(PID.TID 0000.0001) Creating Stats. Output Stream: FeT_stat
(PID.TID 0000.0001) Output Frequency:       1200.000000 ; Phase:           0.000000
(PID.TID 0000.0001)  Regions:   0
(PID.TID 0000.0001)  Fields:    TRAC03
(PID.TID 0000.0001) -----------------------------------------------------
(PID.TID 0000.0001) 
(PID.TID 0000.0001) SET_PARMS: done
(PID.TID 0000.0001) Enter INI_VERTICAL_GRID: setInterFDr=    T ; setCenterDr=    F
(PID.TID 0000.0001)  MDS_READ_FIELD: opening global file: LONC.bin
(PID.TID 0000.0001)  MDS_READ_FIELD: opening global file: LATC.bin
(PID.TID 0000.0001)  MDS_READ_FIELD: opening global file: DXF.bin
(PID.TID 0000.0001)  MDS_READ_FIELD: opening global file: DYF.bin
(PID.TID 0000.0001)  MDS_READ_FIELD: opening global file: RA.bin
(PID.TID 0000.0001)  MDS_READ_FIELD: opening global file: LONG.bin
(PID.TID 0000.0001)  MDS_READ_FIELD: opening global file: LATG.bin
(PID.TID 0000.0001)  MDS_READ_FIELD: opening global file: DXV.bin
(PID.TID 0000.0001)  MDS_READ_FIELD: opening global file: DYU.bin
(PID.TID 0000.0001)  MDS_READ_FIELD: opening global file: RAZ.bin
(PID.TID 0000.0001)  MDS_READ_FIELD: opening global file: DXC.bin
(PID.TID 0000.0001)  MDS_READ_FIELD: opening global file: DYC.bin
(PID.TID 0000.0001)  MDS_READ_FIELD: opening global file: RAW.bin
(PID.TID 0000.0001)  MDS_READ_FIELD: opening global file: RAS.bin
(PID.TID 0000.0001)  MDS_READ_FIELD: opening global file: DXG.bin
(PID.TID 0000.0001)  MDS_READ_FIELD: opening global file: DYG.bin
(PID.TID 0000.0001) %MON XC_max                       =   3.4323280334473E+01
(PID.TID 0000.0001) %MON XC_min                       =   6.2812995910645E+00
(PID.TID 0000.0001) %MON XC_mean                      =   1.8285267813948E+01
(PID.TID 0000.0001) %MON XC_sd                        =   6.3900599945909E+00
(PID.TID 0000.0001) %MON XG_max                       =   3.4363361358643E+01
(PID.TID 0000.0001) %MON XG_min                       =   6.3874454498291E+00
(PID.TID 0000.0001) %MON XG_mean                      =   1.8373648876945E+01
(PID.TID 0000.0001) %MON XG_sd                        =   6.3700484752252E+00
(PID.TID 0000.0001) %MON DXC_max                      =   2.2403076171875E+04
(PID.TID 0000.0001) %MON DXC_min                      =   1.8505916015625E+04
(PID.TID 0000.0001) %MON DXC_mean                     =   2.0203672926875E+04
(PID.TID 0000.0001) %MON DXC_sd                       =   9.5458170268745E+02
(PID.TID 0000.0001) %MON DXF_max                      =   2.2370343750000E+04
(PID.TID 0000.0001) %MON DXF_min                      =   1.8493386718750E+04
(PID.TID 0000.0001) %MON DXF_mean                     =   2.0182404881528E+04
(PID.TID 0000.0001) %MON DXF_sd                       =   9.4946222069420E+02
(PID.TID 0000.0001) %MON DXG_max                      =   2.2367550781250E+04
(PID.TID 0000.0001) %MON DXG_min                      =   1.8487599609375E+04
(PID.TID 0000.0001) %MON DXG_mean                     =   2.0177259786684E+04
(PID.TID 0000.0001) %MON DXG_sd                       =   9.4896516606818E+02
(PID.TID 0000.0001) %MON DXV_max                      =   2.2400273437500E+04
(PID.TID 0000.0001) %MON DXV_min                      =   1.8500103515625E+04
(PID.TID 0000.0001) %MON DXV_mean                     =   2.0198506532189E+04
(PID.TID 0000.0001) %MON DXV_sd                       =   9.5408286863332E+02
(PID.TID 0000.0001) %MON YC_max                       =   6.7494171142578E+01
(PID.TID 0000.0001) %MON YC_min                       =   5.1496150970459E+01
(PID.TID 0000.0001) %MON YC_mean                      =   5.9557142692700E+01
(PID.TID 0000.0001) %MON YC_sd                        =   3.8956559034090E+00
(PID.TID 0000.0001) %MON YG_max                       =   6.7396972656250E+01
(PID.TID 0000.0001) %MON YG_min                       =   5.1380382537842E+01
(PID.TID 0000.0001) %MON YG_mean                      =   5.9448751095443E+01
(PID.TID 0000.0001) %MON YG_sd                        =   3.8981480636126E+00
(PID.TID 0000.0001) %MON DYC_max                      =   1.7253792968750E+04
(PID.TID 0000.0001) %MON DYC_min                      =   1.6167729492188E+04
(PID.TID 0000.0001) %MON DYC_mean                     =   1.6590043869643E+04
(PID.TID 0000.0001) %MON DYC_sd                       =   2.2883025615363E+02
(PID.TID 0000.0001) %MON DYF_max                      =   1.7247535156250E+04
(PID.TID 0000.0001) %MON DYF_min                      =   1.6166898437500E+04
(PID.TID 0000.0001) %MON DYF_mean                     =   1.6587223710623E+04
(PID.TID 0000.0001) %MON DYF_sd                       =   2.2779671061985E+02
(PID.TID 0000.0001) %MON DYG_max                      =   1.7242103515625E+04
(PID.TID 0000.0001) %MON DYG_min                      =   1.6164107421875E+04
(PID.TID 0000.0001) %MON DYG_mean                     =   1.6582914334660E+04
(PID.TID 0000.0001) %MON DYG_sd                       =   2.2730275857504E+02
(PID.TID 0000.0001) %MON DYU_max                      =   1.7248339843750E+04
(PID.TID 0000.0001) %MON DYU_min                      =   1.6164934570313E+04
(PID.TID 0000.0001) %MON DYU_mean                     =   1.6585720694380E+04
(PID.TID 0000.0001) %MON DYU_sd                       =   2.2833267244082E+02
(PID.TID 0000.0001) %MON RA_max                       =   3.6165907200000E+08
(PID.TID 0000.0001) %MON RA_min                       =   3.1759747200000E+08
(PID.TID 0000.0001) %MON RA_mean                      =   3.3456872125731E+08
(PID.TID 0000.0001) %MON RA_sd                        =   1.1547923169063E+07
(PID.TID 0000.0001) %MON RAW_max                      =   3.6212576000000E+08
(PID.TID 0000.0001) %MON RAW_min                      =   3.1777328000000E+08
(PID.TID 0000.0001) %MON RAW_mean                     =   3.3483373194737E+08
(PID.TID 0000.0001) %MON RAW_sd                       =   1.1630830944481E+07
(PID.TID 0000.0001) %MON RAS_max                      =   3.6163251200000E+08
(PID.TID 0000.0001) %MON RAS_min                      =   3.1760160000000E+08
(PID.TID 0000.0001) %MON RAS_mean                     =   3.3453950318129E+08
(PID.TID 0000.0001) %MON RAS_sd                       =   1.1525868078589E+07
(PID.TID 0000.0001) %MON RAZ_max                      =   3.6209897600000E+08
(PID.TID 0000.0001) %MON RAZ_min                      =   3.1777724800000E+08
(PID.TID 0000.0001) %MON RAZ_mean                     =   3.3480396163743E+08
(PID.TID 0000.0001) %MON RAZ_sd                       =   1.1608759740398E+07
(PID.TID 0000.0001) %MON AngleCS_max                  =   1.0000000000000E+00
(PID.TID 0000.0001) %MON AngleCS_min                  =   1.0000000000000E+00
(PID.TID 0000.0001) %MON AngleCS_mean                 =   1.0000000000000E+00
(PID.TID 0000.0001) %MON AngleCS_sd                   =   0.0000000000000E+00
(PID.TID 0000.0001) %MON AngleSN_max                  =   0.0000000000000E+00
(PID.TID 0000.0001) %MON AngleSN_min                  =   0.0000000000000E+00
(PID.TID 0000.0001) %MON AngleSN_mean                 =   0.0000000000000E+00
(PID.TID 0000.0001) %MON AngleSN_sd                   =   0.0000000000000E+00
(PID.TID 0000.0001)  MDS_READ_FIELD: opening global file: ETOPO2_76x72_baltic_corr
(PID.TID 0000.0001) // =======================================================
(PID.TID 0000.0001) // Field Model R_low (ini_masks_etc) at iteration          1
(PID.TID 0000.0001) // CMIN =         -5.632600000000000E+02
(PID.TID 0000.0001) // CMAX =          0.000000000000000E+00
(PID.TID 0000.0001) // CINT =          2.086148148148148E+01
(PID.TID 0000.0001) // SYMBOLS (CMIN->CMAX): -abcdefghijklmnopqrstuvwxyz+
(PID.TID 0000.0001) //                  0.0: .
(PID.TID 0000.0001) // RANGE I (Lo:Hi:Step):(  -3:  80:   1)
(PID.TID 0000.0001) // RANGE J (Lo:Hi:Step):(  76:  -3:  -1)
(PID.TID 0000.0001) // RANGE K (Lo:Hi:Step):(   1:   1:   1)
(PID.TID 0000.0001) // =======================================================
(PID.TID 0000.0001) K =   1
(PID.TID 0000.0001) //                I=6       I=16      I=26      I=36      I=38      I=48      I=58      I=68      I=78
(PID.TID 0000.0001) // |--J--|321012345|789012345|789012345|789012345|789012567|901234567|901234567|901234567|901234567|90
(PID.TID 0000.0001) //     76 .............................................................+++............................
(PID.TID 0000.0001) //     75 ...............................................................+............................
(PID.TID 0000.0001) //     74 ...............................................................++...........................
(PID.TID 0000.0001) //     73 ............................................................................................
(PID.TID 0000.0001) //     72 ....zzyyyyyyzzzzzyyzzywrnl..............................................................zzyy
(PID.TID 0000.0001) //     71 ....zzyyyyyyzzzzzyyzzywrll..............................................................zzyy
(PID.TID 0000.0001) //     70 ....zzyyyzzzzzzzzzzzzywrlf..............................................................zzyy
(PID.TID 0000.0001) //     69 ....zzyyyzzzzzzzzzzzyyxtlfv.............................................................zzyy
(PID.TID 0000.0001) //     68 ....+zyyzzzzzzzzzzzzzzyupfp.............................................................+zyy
(PID.TID 0000.0001) //     67 ....+zyzzzzzzzzzzzz++zzxrffu............................................................+zyz
(PID.TID 0000.0001) //     66 ....+zyzzzzzzz++...+..zyvlciu...........................................................+zyz
(PID.TID 0000.0001) //     65 ....+zzzzz+zz+........zzyscbirz.........................................................+zzz
(PID.TID 0000.0001) //     64 ....zzzzz++++.........+zzvnb-fqz........................................................zzzz
(PID.TID 0000.0001) //     63 ....++zz+++............+zxui--lw........................................................++zz
(PID.TID 0000.0001) //     62 .....+z+................+zwqffpv+........................................................+z+
(PID.TID 0000.0001) //     61 .....+...................+xsllswz++......................................................+..
(PID.TID 0000.0001) //     60 ..........................xuprvyyz..........................................................
(PID.TID 0000.0001) //     59 ...............+.....++..+wurwyz+...........................................................
(PID.TID 0000.0001) //     58 ..........++...+++..++zz++vuuz..............................................................
(PID.TID 0000.0001) //     57 .........zz+...+++..++z+++yxz...............................................................
(PID.TID 0000.0001) //     56 .........zz+...+++++++zz++++................................................................
(PID.TID 0000.0001) //     55 .........+zzz+++++++++zzz+..................................................................
(PID.TID 0000.0001) //     54 .........+z+zz...++++zyyz...................................................................
(PID.TID 0000.0001) //     53 .......+z++.++...++++zyy...................................................................+
(PID.TID 0000.0001) //     52 .......+zz+.++...+++zyy....................................................................+
(PID.TID 0000.0001) //     51 ........+z+........zyy+.....................................................................
(PID.TID 0000.0001) //     50 .........zzz.+.+...zzz......................................................................
(PID.TID 0000.0001) //     49 .........zzzz+z+.+..........................................................................
(PID.TID 0000.0001) //     48 ..........+zzzz+++..........................................................................
(PID.TID 0000.0001) //     47 ..........+zzz+.............................................................................
(PID.TID 0000.0001) //     46 ..........+zz++.............................................................................
(PID.TID 0000.0001) //     45 ...........++zz+............................................................................
(PID.TID 0000.0001) //     44 ............+yyy............................................................................
(PID.TID 0000.0001) //     43 ..........++++yy..+...........................................+z............................
(PID.TID 0000.0001) //     42 .........++++ywzzzz+....................................++z++wtuvz+.........................
(PID.TID 0000.0001) //     41 ........+++zxwwzzyyz+..................................++zxyytnnpuuuz.......................
(PID.TID 0000.0001) //     40 ........+++yxxz.yxyzz.................................zxyywvwupnnppqwx+.....................
(PID.TID 0000.0001) //     39 ........++zyyxy.xxyyz.................................zwwwvvwzvsrpnnquyz....................
(PID.TID 0000.0001) //     38 ..........zzyxxwwwxy+.............+...................+zxwvvw+zywspnnswz+......zz++.........
(PID.TID 0000.0001) //     37 ..........zyywwvvwxyzz++.....+zz+zz+.........+.......+++zxwvvxz+zvpnnqvy+++z..zxxzz+........
(PID.TID 0000.0001) //     36 z+.........yxwwvvwwxyz+....+zyxwxxyz.........+.......+++zyvvvvwz+zuqqvz++zxxxywwwyzzz+......
(PID.TID 0000.0001) //     35 xz.........zxxwwvwwxyyzzyzz+zxvvvvwz++......+z......+z++zzvwwtuz++zyy++++yyyvvvwwxyxxz......
(PID.TID 0000.0001) //     34 xz+.........yxxxwxxxyyyxxwxxyxwuuuvuvz.....yyz.....yyz++zzwwutty++++....+yyywwwwwxxxxz+.....
(PID.TID 0000.0001) //     33 zz+.........+zyyxwyyyyzyxwwwwwxwwwvssy+++++yy.+++++yy.++zzyxwuuy+++.....++++yxxxxxxyzz+.....
(PID.TID 0000.0001) //     40 ........+++yxxz.yxyzz.................................zxyywvwupnnppqwx+.....................
(PID.TID 0000.0001) //     39 ........++zyyxy.xxyyz.................................zwwwvvwzvsrpnnquyz....................
(PID.TID 0000.0001) //     38 ..........zzyxxwwwxy+.............+...................+zxwvvw+zywspnnswz+......zz++.........
(PID.TID 0000.0001) //     37 ..........zyywwvvwxyzz++.....+zz+zz+.........+.......+++zxwvvxz+zvpnnqvy+++z..zxxzz+........
(PID.TID 0000.0001) //     36 z+.........yxwwvvwwxyz+....+zyxwxxyz.........+.......+++zyvvvvwz+zuqqvz++zxxxywwwyzzz+......
(PID.TID 0000.0001) //     35 xz.........zxxwwvwwxyyzzyzz+zxvvvvwz++......+z......+z++zzvwwtuz++zyy++++yyyvvvwwxyxxz......
(PID.TID 0000.0001) //     34 xz+.........yxxxwxxxyyyxxwxxyxwuuuvuvz.....yyz.....yyz++zzwwutty++++....+yyywwwwwxxxxz+.....
(PID.TID 0000.0001) //     33 zz+.........+zyyxwyyyyzyxwwwwwxwwwvssy+++++yy.+++++yy.++zzyxwuuy+++.....++++yxxxxxxyzz+.....
(PID.TID 0000.0001) //     32 z++...........yyywxzyyzzyxxxzz+yxxvtswyzz+zyy.yzz+zyy..+++zzzyvz++..........+zyyxxzzz++.....
(PID.TID 0000.0001) //     31 +++...........zyywxzyyyyyyz+....zwvvwvwxyzzyz.wxyzzyz..+++++++y+.............+zzzzz++++.....
(PID.TID 0000.0001) //     30 +++............zyxwxxxxyzzz+....+xyzyvvwxyzy+.vwxyzy+.+++++++.....................+.+++.....
(PID.TID 0000.0001) //     29 ...............+yxwxxxxyzzzyyzzz+zxwwvvvxyzz++vvxyzz++++++..................................
(PID.TID 0000.0001) //     28 ................zywwwwvvwxwuvvxxxwtvvvuuwxzz++uuwxzz+++.....................................
(PID.TID 0000.0001) //     27 ................+ywwvvuvvutsstvwvttvvvuuvwyz++uuvwyz++++....................................
(PID.TID 0000.0001) //     26 ................+ywwwvuuuuutstuuutuwvvvuuwwy++vuuwwy++......................................
(PID.TID 0000.0001) //     25 ................zwwwwwwvuuttsrrrtuvwwvwvuuvx++wvuuvx+++.....................................
(PID.TID 0000.0001) //     24 ...............yywwwwwxxwvutssssuvwwxwwwwuvyz+wwwuvyz++.....................................
(PID.TID 0000.0001) //     23 ..............+xwwwwwwwxxwvuuvvwxxwxyxxxxwvwy+xxxwvwy++.....................................
(PID.TID 0000.0001) //     22 ..............+xwwwwwwwxyyxwwwxxxyxxyzzyzzxwxzzyzzxwxz+.....................................
(PID.TID 0000.0001) //     21 ...............yxyyxxxxxyyyyxyyyyyyyz..yz+ywwy.yz+ywwy+.....................................
(PID.TID 0000.0001) //     20 ................z+.yyyxyyz+...+..+zz+...+.+xwx..+.+xwxz.....................................
(PID.TID 0000.0001) //     19 ...................zzzyyz.........+zz+..+.+zxx..+.+zxxy+....................................
(PID.TID 0000.0001) //     18 ...................++zz+...........zz+...+++zx...+++zxxz+...................................
(PID.TID 0000.0001) //     17 ...................+++.............zzzz+++...yz+++...yxyz...................................
(PID.TID 0000.0001) //     16 ...................++.............zyzyyz+.....yz+.....zyz++.................................
(PID.TID 0000.0001) //     15 ..................................yyzyyz......yz.......zzz+.................................
(PID.TID 0000.0001) //     14 .................................zyyyyz+......z+........++++................................
(PID.TID 0000.0001) //     13 .................................yyyyyzz+.....zz+.......+++++...............................
(PID.TID 0000.0001) //     12 .................................yyyz+...................+++++..............................
(PID.TID 0000.0001) //     11 .................................zz+.....................+++++..............................
(PID.TID 0000.0001) //     10 .........................................................++++++.............................
(PID.TID 0000.0001) //      9 .........................................................+z++++.............................
(PID.TID 0000.0001) //      8 .........................................................+zyy+++............................
(PID.TID 0000.0001) //      7 ..........................................................zyy++++...........................
(PID.TID 0000.0001) //      6 ..........................................................z+.+++............................
(PID.TID 0000.0001) //      5 ............................................................++++............................
(PID.TID 0000.0001) //      4 .............................................................+++............................
(PID.TID 0000.0001) //      3 ...............................................................+............................
(PID.TID 0000.0001) //      2 ...............................................................++...........................
(PID.TID 0000.0001) //      1 ............................................................................................
(PID.TID 0000.0001) //      0 ....zzyyyyyyzzzzzyyzzywrnl..............................................................zzyy
(PID.TID 0000.0001) //     -1 ....zzyyyyyyzzzzzyyzzywrll..............................................................zzyy
(PID.TID 0000.0001) //     -2 ....zzyyyzzzzzzzzzzzzywrlf..............................................................zzyy
(PID.TID 0000.0001) //     -3 ....zzyyyzzzzzzzzzzzyyxtlfv.............................................................zzyy
(PID.TID 0000.0001) // =======================================================
(PID.TID 0000.0001) // END OF FIELD                                          =
(PID.TID 0000.0001) // =======================================================
(PID.TID 0000.0001) 
(PID.TID 0000.0001) // =======================================================
(PID.TID 0000.0001) // Field Model Ro_surf (ini_masks_etc) at iteration          1
(PID.TID 0000.0001) // CMIN =         -8.526512829121202E-14
(PID.TID 0000.0001) // CMAX =          2.842170943040401E-14
(PID.TID 0000.0001) // CINT =          4.210623619319112E-15
(PID.TID 0000.0001) // SYMBOLS (CMIN->CMAX): -abcdefghijklmnopqrstuvwxyz+
(PID.TID 0000.0001) //                  0.0: .
(PID.TID 0000.0001) // RANGE I (Lo:Hi:Step):(  -3:  80:   1)
(PID.TID 0000.0001) // RANGE J (Lo:Hi:Step):(  76:  -3:  -1)
(PID.TID 0000.0001) // RANGE K (Lo:Hi:Step):(   1:   1:   1)
(PID.TID 0000.0001) // =======================================================
(PID.TID 0000.0001) K =   1
(PID.TID 0000.0001) //                I=6       I=16      I=26      I=36      I=38      I=48      I=58      I=68      I=78
(PID.TID 0000.0001) // |--J--|321012345|789012345|789012345|789012345|789012567|901234567|901234567|901234567|901234567|90
(PID.TID 0000.0001) //     76 ............................................................................................
(PID.TID 0000.0001) //     75 ............................................................................................
(PID.TID 0000.0001) //     74 ............................................................................................
(PID.TID 0000.0001) //     73 ............................................................................................
(PID.TID 0000.0001) //     72 ......................xn++..................................................................
(PID.TID 0000.0001) //     71 ......................xn++..................................................................
(PID.TID 0000.0001) //     70 ......................xn+n..................................................................
(PID.TID 0000.0001) //     69 ........................+n..................................................................
(PID.TID 0000.0001) //     68 ........................gng.................................................................
(PID.TID 0000.0001) //     67 ........................nnn.................................................................
(PID.TID 0000.0001) //     66 .........................+-+................................................................
(PID.TID 0000.0001) //     65 .........................n-n+n..............................................................
(PID.TID 0000.0001) //     64 ..........................+nnnn.............................................................
(PID.TID 0000.0001) //     63 ...........................+nn+x............................................................
(PID.TID 0000.0001) //     62 ..........................xnnng.............................................................
(PID.TID 0000.0001) //     61 ...........................n++nx............................................................
(PID.TID 0000.0001) //     60 ............................gn..............................................................
(PID.TID 0000.0001) //     59 ..........................x.nx..............................................................
(PID.TID 0000.0001) //     58 ............................................................................................
(PID.TID 0000.0001) //     57 ............................................................................................
(PID.TID 0000.0001) //     56 ............................................................................................
(PID.TID 0000.0001) //     55 ............................................................................................
(PID.TID 0000.0001) //     54 ............................................................................................
(PID.TID 0000.0001) //     53 ............................................................................................
(PID.TID 0000.0001) //     52 ............................................................................................
(PID.TID 0000.0001) //     51 ............................................................................................
(PID.TID 0000.0001) //     50 ............................................................................................
(PID.TID 0000.0001) //     49 ............................................................................................
(PID.TID 0000.0001) //     48 ............................................................................................
(PID.TID 0000.0001) //     47 ............................................................................................
(PID.TID 0000.0001) //     46 ............................................................................................
(PID.TID 0000.0001) //     45 ............................................................................................
(PID.TID 0000.0001) //     44 ............................................................................................
(PID.TID 0000.0001) //     43 ............................................................................................
(PID.TID 0000.0001) //     42 ..............x..............................................x..............................
(PID.TID 0000.0001) //     41 .............xx...............................................++g...........................
(PID.TID 0000.0001) //     40 ..........................................................x.x.g++ggnx.......................
(PID.TID 0000.0001) //     39 .......................................................xxx..x..nng++n.......................
(PID.TID 0000.0001) //     38 ...............xxx.......................................x..x...xng++nx.....................
(PID.TID 0000.0001) //     37 .............xx..x........................................x.......g++n......................
(PID.TID 0000.0001) //     36 .............xx..xx............x..............................x....nn.........xxx...........
(PID.TID 0000.0001) //     35 ..............xx.xx...............x........................xx..................xx...........
(PID.TID 0000.0001) //     34 ................x........x....x...........................xx................xxxxx...........
(PID.TID 0000.0001) //     33 .................x.......xxxxx.xxx.nn.......................x...............................
(PID.TID 0000.0001) //     40 ..........................................................x.x.g++ggnx.......................
(PID.TID 0000.0001) //     39 .......................................................xxx..x..nng++n.......................
(PID.TID 0000.0001) //     38 ...............xxx.......................................x..x...xng++nx.....................
(PID.TID 0000.0001) //     37 .............xx..x........................................x.......g++n......................
(PID.TID 0000.0001) //     36 .............xx..xx............x..............................x....nn.........xxx...........
(PID.TID 0000.0001) //     35 ..............xx.xx...............x........................xx..................xx...........
(PID.TID 0000.0001) //     34 ................x........x....x...........................xx................xxxxx...........
(PID.TID 0000.0001) //     33 .................x.......xxxxx.xxx.nn.......................x...............................
(PID.TID 0000.0001) //     32 .................x..................nx......................................................
(PID.TID 0000.0001) //     31 .................x...............x..x.x.......x.............................................
(PID.TID 0000.0001) //     30 ..................x....................x.......x............................................
(PID.TID 0000.0001) //     29 ..................x................xx.......................................................
(PID.TID 0000.0001) //     28 ..................xxxx..x.x......x......x.......x...........................................
(PID.TID 0000.0001) //     27 ..................xx.......nn..x.........x.......x..........................................
(PID.TID 0000.0001) //     26 ..................xxx.......n......x.....xx......xx.........................................
(PID.TID 0000.0001) //     25 .................xxxxxx.....nnnn...xx.x.......x.............................................
(PID.TID 0000.0001) //     24 .................xxxxx..x...nnnn..xx.xxxx.....xxx...........................................
(PID.TID 0000.0001) //     23 ................xxxxxxx..x.....x..x......x.x.....x.x........................................
(PID.TID 0000.0001) //     22 ................xxxxxxx....xxx.............x.......x........................................
(PID.TID 0000.0001) //     21 ...........................................xx......xx.......................................
(PID.TID 0000.0001) //     20 ............................................x.......x.......................................
(PID.TID 0000.0001) //     19 ............................................................................................
(PID.TID 0000.0001) //     18 ............................................................................................
(PID.TID 0000.0001) //     17 ............................................................................................
(PID.TID 0000.0001) //     16 ............................................................................................
(PID.TID 0000.0001) //     15 ............................................................................................
(PID.TID 0000.0001) //     14 ............................................................................................
(PID.TID 0000.0001) //     13 ............................................................................................
(PID.TID 0000.0001) //     12 ............................................................................................
(PID.TID 0000.0001) //     11 ............................................................................................
(PID.TID 0000.0001) //     10 ............................................................................................
(PID.TID 0000.0001) //      9 ............................................................................................
(PID.TID 0000.0001) //      8 ............................................................................................
(PID.TID 0000.0001) //      7 ............................................................................................
(PID.TID 0000.0001) //      6 ............................................................................................
(PID.TID 0000.0001) //      5 ............................................................................................
(PID.TID 0000.0001) //      4 ............................................................................................
(PID.TID 0000.0001) //      3 ............................................................................................
(PID.TID 0000.0001) //      2 ............................................................................................
(PID.TID 0000.0001) //      1 ............................................................................................
(PID.TID 0000.0001) //      0 ......................xn++..................................................................
(PID.TID 0000.0001) //     -1 ......................xn++..................................................................
(PID.TID 0000.0001) //     -2 ......................xn+n..................................................................
(PID.TID 0000.0001) //     -3 ........................+n..................................................................
(PID.TID 0000.0001) // =======================================================
(PID.TID 0000.0001) // END OF FIELD                                          =
(PID.TID 0000.0001) // =======================================================
(PID.TID 0000.0001) 
(PID.TID 0000.0001) // =======================================================
(PID.TID 0000.0001) // Field hFacC at iteration          1
(PID.TID 0000.0001) // CMIN =          0.000000000000000E+00
(PID.TID 0000.0001) // CMAX =          1.000000000000000E+00
(PID.TID 0000.0001) // CINT =          3.703703703703703E-02
(PID.TID 0000.0001) // SYMBOLS (CMIN->CMAX): -abcdefghijklmnopqrstuvwxyz+
(PID.TID 0000.0001) //                  0.0: .
(PID.TID 0000.0001) // RANGE I (Lo:Hi:Step):(  -3:  80:   1)
(PID.TID 0000.0001) // RANGE J (Lo:Hi:Step):(  76:  -3:  -1)
(PID.TID 0000.0001) // RANGE K (Lo:Hi:Step):(   1:   1:   1)
(PID.TID 0000.0001) // =======================================================
(PID.TID 0000.0001) K =   1
(PID.TID 0000.0001) //                I=6       I=16      I=26      I=36      I=38      I=48      I=58      I=68      I=78
(PID.TID 0000.0001) // |--J--|321012345|789012345|789012345|789012345|789012567|901234567|901234567|901234567|901234567|90
(PID.TID 0000.0001) //     76 .............................................................+++............................
(PID.TID 0000.0001) //     75 ...............................................................+............................
(PID.TID 0000.0001) //     74 ...............................................................++...........................
(PID.TID 0000.0001) //     73 ............................................................................................
(PID.TID 0000.0001) //     72 ....++++++++++++++++++++++..............................................................++++
(PID.TID 0000.0001) //     71 ....++++++++++++++++++++++..............................................................++++
(PID.TID 0000.0001) //     70 ....++++++++++++++++++++++..............................................................++++
(PID.TID 0000.0001) //     69 ....+++++++++++++++++++++++.............................................................++++
(PID.TID 0000.0001) //     68 ....+++++++++++++++++++++++.............................................................++++
(PID.TID 0000.0001) //     67 ....++++++++++++++++++++++++............................................................++++
(PID.TID 0000.0001) //     66 ....++++++++++++...+..+++++++...........................................................++++
(PID.TID 0000.0001) //     65 ....++++++++++........+++++++++.........................................................++++
(PID.TID 0000.0001) //     64 ....+++++++++.........++++++++++........................................................++++
(PID.TID 0000.0001) //     63 ....+++++++............+++++++++........................................................++++
(PID.TID 0000.0001) //     62 .....+++................+++++++++........................................................+++
(PID.TID 0000.0001) //     61 .....+...................++++++++++......................................................+..
(PID.TID 0000.0001) //     60 ..........................++++++++..........................................................
(PID.TID 0000.0001) //     59 ...............+.....++..++++++++...........................................................
(PID.TID 0000.0001) //     58 ..........++...+++..++++++++++..............................................................
(PID.TID 0000.0001) //     57 .........+++...+++..+++++++++...............................................................
(PID.TID 0000.0001) //     56 .........+++...+++++++++++++................................................................
(PID.TID 0000.0001) //     55 .........+++++++++++++++++..................................................................
(PID.TID 0000.0001) //     54 .........+++++...++++++++...................................................................
(PID.TID 0000.0001) //     53 .......++++.++...+++++++...................................................................+
(PID.TID 0000.0001) //     52 .......++++.++...++++++....................................................................+
(PID.TID 0000.0001) //     51 ........+++........++++.....................................................................
(PID.TID 0000.0001) //     50 .........+++.+.+...+++......................................................................
(PID.TID 0000.0001) //     49 .........+++++++.+..........................................................................
(PID.TID 0000.0001) //     48 ..........++++++++..........................................................................
(PID.TID 0000.0001) //     47 ..........+++++.............................................................................
(PID.TID 0000.0001) //     46 ..........+++++.............................................................................
(PID.TID 0000.0001) //     45 ...........+++++............................................................................
(PID.TID 0000.0001) //     44 ............++++............................................................................
(PID.TID 0000.0001) //     43 ..........++++++..+...........................................++............................
(PID.TID 0000.0001) //     42 .........+++++++++++....................................+++++++++++.........................
(PID.TID 0000.0001) //     41 ........+++++++++++++..................................++++++++++++++.......................
(PID.TID 0000.0001) //     40 ........+++++++.+++++.................................+++++++++++++++++.....................
(PID.TID 0000.0001) //     39 ........+++++++.+++++.................................++++++++++++++++++....................
(PID.TID 0000.0001) //     38 ..........+++++++++++.............+...................+++++++++++++++++++......++++.........
(PID.TID 0000.0001) //     37 ..........++++++++++++++.....+++++++.........+.......+++++++++++++++++++++++..++++++........
(PID.TID 0000.0001) //     36 ++.........++++++++++++....+++++++++.........+.......+++++++++++++++++++++++++++++++++......
(PID.TID 0000.0001) //     35 ++.........+++++++++++++++++++++++++++......++......++++++++++++++++++++++++++++++++++......
(PID.TID 0000.0001) //     34 +++.........++++++++++++++++++++++++++.....+++.....+++++++++++++++++....+++++++++++++++.....
(PID.TID 0000.0001) //     33 +++.........+++++++++++++++++++++++++++++++++.+++++++.+++++++++++++.....+++++++++++++++.....
(PID.TID 0000.0001) //     40 ........+++++++.+++++.................................+++++++++++++++++.....................
(PID.TID 0000.0001) //     39 ........+++++++.+++++.................................++++++++++++++++++....................
(PID.TID 0000.0001) //     38 ..........+++++++++++.............+...................+++++++++++++++++++......++++.........
(PID.TID 0000.0001) //     37 ..........++++++++++++++.....+++++++.........+.......+++++++++++++++++++++++..++++++........
(PID.TID 0000.0001) //     36 ++.........++++++++++++....+++++++++.........+.......+++++++++++++++++++++++++++++++++......
(PID.TID 0000.0001) //     35 ++.........+++++++++++++++++++++++++++......++......++++++++++++++++++++++++++++++++++......
(PID.TID 0000.0001) //     34 +++.........++++++++++++++++++++++++++.....+++.....+++++++++++++++++....+++++++++++++++.....
(PID.TID 0000.0001) //     33 +++.........+++++++++++++++++++++++++++++++++.+++++++.+++++++++++++.....+++++++++++++++.....
(PID.TID 0000.0001) //     32 +++...........+++++++++++++++++++++++++++++++.+++++++..+++++++++++..........+++++++++++.....
(PID.TID 0000.0001) //     31 +++...........++++++++++++++....+++++++++++++.+++++++..+++++++++.............++++++++++.....
(PID.TID 0000.0001) //     30 +++............+++++++++++++....+++++++++++++.+++++++.+++++++.....................+.+++.....
(PID.TID 0000.0001) //     29 ...............+++++++++++++++++++++++++++++++++++++++++++..................................
(PID.TID 0000.0001) //     28 ................+++++++++++++++++++++++++++++++++++++++.....................................
(PID.TID 0000.0001) //     27 ................++++++++++++++++++++++++++++++++++++++++....................................
(PID.TID 0000.0001) //     26 ................++++++++++++++++++++++++++++++++++++++......................................
(PID.TID 0000.0001) //     25 ................+++++++++++++++++++++++++++++++++++++++.....................................
(PID.TID 0000.0001) //     24 ...............++++++++++++++++++++++++++++++++++++++++.....................................
(PID.TID 0000.0001) //     23 ..............+++++++++++++++++++++++++++++++++++++++++.....................................
(PID.TID 0000.0001) //     22 ..............+++++++++++++++++++++++++++++++++++++++++.....................................
(PID.TID 0000.0001) //     21 ...............++++++++++++++++++++++..+++++++.++++++++.....................................
(PID.TID 0000.0001) //     20 ................++.++++++++...+..++++...+.++++..+.+++++.....................................
(PID.TID 0000.0001) //     19 ...................++++++.........++++..+.++++..+.++++++....................................
(PID.TID 0000.0001) //     18 ...................+++++...........+++...+++++...++++++++...................................
(PID.TID 0000.0001) //     17 ...................+++.............+++++++...+++++...++++...................................
(PID.TID 0000.0001) //     16 ...................++.............+++++++.....+++.....+++++.................................
(PID.TID 0000.0001) //     15 ..................................++++++......++.......++++.................................
(PID.TID 0000.0001) //     14 .................................+++++++......++........++++................................
(PID.TID 0000.0001) //     13 .................................++++++++.....+++.......+++++...............................
(PID.TID 0000.0001) //     12 .................................+++++...................+++++..............................
(PID.TID 0000.0001) //     11 .................................+++.....................+++++..............................
(PID.TID 0000.0001) //     10 .........................................................++++++.............................
(PID.TID 0000.0001) //      9 .........................................................++++++.............................
(PID.TID 0000.0001) //      8 .........................................................+++++++............................
(PID.TID 0000.0001) //      7 ..........................................................+++++++...........................
(PID.TID 0000.0001) //      6 ..........................................................++.+++............................
(PID.TID 0000.0001) //      5 ............................................................++++............................
(PID.TID 0000.0001) //      4 .............................................................+++............................
(PID.TID 0000.0001) //      3 ...............................................................+............................
(PID.TID 0000.0001) //      2 ...............................................................++...........................
(PID.TID 0000.0001) //      1 ............................................................................................
(PID.TID 0000.0001) //      0 ....++++++++++++++++++++++..............................................................++++
(PID.TID 0000.0001) //     -1 ....++++++++++++++++++++++..............................................................++++
(PID.TID 0000.0001) //     -2 ....++++++++++++++++++++++..............................................................++++
(PID.TID 0000.0001) //     -3 ....+++++++++++++++++++++++.............................................................++++
(PID.TID 0000.0001) // =======================================================
(PID.TID 0000.0001) // END OF FIELD                                          =
(PID.TID 0000.0001) // =======================================================
(PID.TID 0000.0001) 
(PID.TID 0000.0001) // =======================================================
(PID.TID 0000.0001) // Field hFacW at iteration          1
(PID.TID 0000.0001) // CMIN =          0.000000000000000E+00
(PID.TID 0000.0001) // CMAX =          1.000000000000000E+00
(PID.TID 0000.0001) // CINT =          3.703703703703703E-02
(PID.TID 0000.0001) // SYMBOLS (CMIN->CMAX): -abcdefghijklmnopqrstuvwxyz+
(PID.TID 0000.0001) //                  0.0: .
(PID.TID 0000.0001) // RANGE I (Lo:Hi:Step):(  -3:  80:   1)
(PID.TID 0000.0001) // RANGE J (Lo:Hi:Step):(  76:  -3:  -1)
(PID.TID 0000.0001) // RANGE K (Lo:Hi:Step):(   1:   1:   1)
(PID.TID 0000.0001) // =======================================================
(PID.TID 0000.0001) K =   1
(PID.TID 0000.0001) //                I=6       I=16      I=26      I=36      I=38      I=48      I=58      I=68      I=78
(PID.TID 0000.0001) // |--J--|321012345|789012345|789012345|789012345|789012567|901234567|901234567|901234567|901234567|90
(PID.TID 0000.0001) //     76 ..............................................................++............................
(PID.TID 0000.0001) //     75 ............................................................................................
(PID.TID 0000.0001) //     74 ................................................................+...........................
(PID.TID 0000.0001) //     73 ............................................................................................
(PID.TID 0000.0001) //     72 .....+++++++++++++++++++++...............................................................+++
(PID.TID 0000.0001) //     71 .....+++++++++++++++++++++...............................................................+++
(PID.TID 0000.0001) //     70 .....+++++++++++++++++++++...............................................................+++
(PID.TID 0000.0001) //     69 .....++++++++++++++++++++++..............................................................+++
(PID.TID 0000.0001) //     68 .....++++++++++++++++++++++..............................................................+++
(PID.TID 0000.0001) //     67 .....+++++++++++++++++++++++.............................................................+++
(PID.TID 0000.0001) //     66 .....+++++++++++.......++++++............................................................+++
(PID.TID 0000.0001) //     65 .....+++++++++.........++++++++..........................................................+++
(PID.TID 0000.0001) //     64 .....++++++++..........+++++++++.........................................................+++
(PID.TID 0000.0001) //     63 .....++++++.............++++++++.........................................................+++
(PID.TID 0000.0001) //     62 ......++.................++++++++.........................................................++
(PID.TID 0000.0001) //     61 ..........................+++++++++.........................................................
(PID.TID 0000.0001) //     60 ...........................+++++++..........................................................
(PID.TID 0000.0001) //     59 ......................+...+++++++...........................................................
(PID.TID 0000.0001) //     58 ...........+....++...+++++++++..............................................................
(PID.TID 0000.0001) //     57 ..........++....++...++++++++...............................................................
(PID.TID 0000.0001) //     56 ..........++....++++++++++++................................................................
(PID.TID 0000.0001) //     55 ..........++++++++++++++++..................................................................
(PID.TID 0000.0001) //     54 ..........++++....+++++++...................................................................
(PID.TID 0000.0001) //     53 ........+++..+....++++++....................................................................
(PID.TID 0000.0001) //     52 ........+++..+....+++++.....................................................................
(PID.TID 0000.0001) //     51 .........++.........+++.....................................................................
(PID.TID 0000.0001) //     50 ..........++........++......................................................................
(PID.TID 0000.0001) //     49 ..........++++++............................................................................
(PID.TID 0000.0001) //     48 ...........+++++++..........................................................................
(PID.TID 0000.0001) //     47 ...........++++.............................................................................
(PID.TID 0000.0001) //     46 ...........++++.............................................................................
(PID.TID 0000.0001) //     45 ............++++............................................................................
(PID.TID 0000.0001) //     44 .............+++............................................................................
(PID.TID 0000.0001) //     43 ...........+++++...............................................+............................
(PID.TID 0000.0001) //     42 ..........++++++++++.....................................++++++++++.........................
(PID.TID 0000.0001) //     41 .........++++++++++++...................................+++++++++++++.......................
(PID.TID 0000.0001) //     40 .........++++++..++++..................................++++++++++++++++.....................
(PID.TID 0000.0001) //     39 .........++++++..++++..................................+++++++++++++++++....................
(PID.TID 0000.0001) //     38 ...........++++++++++..................................++++++++++++++++++.......+++.........
(PID.TID 0000.0001) //     37 ...........+++++++++++++......++++++..................++++++++++++++++++++++...+++++........
(PID.TID 0000.0001) //     36 ++..........+++++++++++.....++++++++..................++++++++++++++++++++++++++++++++......
(PID.TID 0000.0001) //     35 ++..........++++++++++++++++++++++++++.......+.......+++++++++++++++++++++++++++++++++......
(PID.TID 0000.0001) //     34 +++..........+++++++++++++++++++++++++......++......++++++++++++++++.....++++++++++++++.....
(PID.TID 0000.0001) //     33 +++..........++++++++++++++++++++++++++++++++.+++++++..++++++++++++......++++++++++++++.....
(PID.TID 0000.0001) //     40 .........++++++..++++..................................++++++++++++++++.....................
(PID.TID 0000.0001) //     39 .........++++++..++++..................................+++++++++++++++++....................
(PID.TID 0000.0001) //     38 ...........++++++++++..................................++++++++++++++++++.......+++.........
(PID.TID 0000.0001) //     37 ...........+++++++++++++......++++++..................++++++++++++++++++++++...+++++........
(PID.TID 0000.0001) //     36 ++..........+++++++++++.....++++++++..................++++++++++++++++++++++++++++++++......
(PID.TID 0000.0001) //     35 ++..........++++++++++++++++++++++++++.......+.......+++++++++++++++++++++++++++++++++......
(PID.TID 0000.0001) //     34 +++..........+++++++++++++++++++++++++......++......++++++++++++++++.....++++++++++++++.....
(PID.TID 0000.0001) //     33 +++..........++++++++++++++++++++++++++++++++.+++++++..++++++++++++......++++++++++++++.....
(PID.TID 0000.0001) //     32 +++............++++++++++++++++++++++++++++++.+++++++...++++++++++...........++++++++++.....
(PID.TID 0000.0001) //     31 +++............+++++++++++++.....++++++++++++.+++++++...++++++++..............+++++++++.....
(PID.TID 0000.0001) //     30 .++.............++++++++++++.....++++++++++++.+++++++..++++++........................++.....
(PID.TID 0000.0001) //     29 ................++++++++++++++++++++++++++++++++++++++++++..................................
(PID.TID 0000.0001) //     28 .................++++++++++++++++++++++++++++++++++++++.....................................
(PID.TID 0000.0001) //     27 .................+++++++++++++++++++++++++++++++++++++++....................................
(PID.TID 0000.0001) //     26 .................+++++++++++++++++++++++++++++++++++++......................................
(PID.TID 0000.0001) //     25 .................++++++++++++++++++++++++++++++++++++++.....................................
(PID.TID 0000.0001) //     24 ................+++++++++++++++++++++++++++++++++++++++.....................................
(PID.TID 0000.0001) //     23 ...............++++++++++++++++++++++++++++++++++++++++.....................................
(PID.TID 0000.0001) //     22 ...............++++++++++++++++++++++++++++++++++++++++.....................................
(PID.TID 0000.0001) //     21 ................+++++++++++++++++++++...++++++..+++++++.....................................
(PID.TID 0000.0001) //     20 .................+..+++++++.......+++......+++.....++++.....................................
(PID.TID 0000.0001) //     19 ....................+++++..........+++.....+++.....+++++....................................
(PID.TID 0000.0001) //     18 ....................++++............++....++++....+++++++...................................
(PID.TID 0000.0001) //     17 ....................++..............++++++....++++....+++...................................
(PID.TID 0000.0001) //     16 ....................+..............++++++.....+++......++++.................................
(PID.TID 0000.0001) //     15 ...................................+++++......++........+++.................................
(PID.TID 0000.0001) //     14 ..................................++++++......++.........+++................................
(PID.TID 0000.0001) //     13 ..................................+++++++.....+++........++++...............................
(PID.TID 0000.0001) //     12 ..................................++++....................++++..............................
(PID.TID 0000.0001) //     11 ..................................++......................++++..............................
(PID.TID 0000.0001) //     10 ..........................................................+++++.............................
(PID.TID 0000.0001) //      9 ..........................................................+++++.............................
(PID.TID 0000.0001) //      8 ..........................................................++++++............................
(PID.TID 0000.0001) //      7 ...........................................................++++++...........................
(PID.TID 0000.0001) //      6 ...........................................................+..++............................
(PID.TID 0000.0001) //      5 .............................................................+++............................
(PID.TID 0000.0001) //      4 ..............................................................++............................
(PID.TID 0000.0001) //      3 ............................................................................................
(PID.TID 0000.0001) //      2 ................................................................+...........................
(PID.TID 0000.0001) //      1 ............................................................................................
(PID.TID 0000.0001) //      0 .....+++++++++++++++++++++...............................................................+++
(PID.TID 0000.0001) //     -1 .....+++++++++++++++++++++...............................................................+++
(PID.TID 0000.0001) //     -2 .....+++++++++++++++++++++...............................................................+++
(PID.TID 0000.0001) //     -3 .....++++++++++++++++++++++..............................................................+++
(PID.TID 0000.0001) // =======================================================
(PID.TID 0000.0001) // END OF FIELD                                          =
(PID.TID 0000.0001) // =======================================================
(PID.TID 0000.0001) 
(PID.TID 0000.0001) // =======================================================
(PID.TID 0000.0001) // Field hFacS at iteration          1
(PID.TID 0000.0001) // CMIN =          0.000000000000000E+00
(PID.TID 0000.0001) // CMAX =          1.000000000000000E+00
(PID.TID 0000.0001) // CINT =          3.703703703703703E-02
(PID.TID 0000.0001) // SYMBOLS (CMIN->CMAX): -abcdefghijklmnopqrstuvwxyz+
(PID.TID 0000.0001) //                  0.0: .
(PID.TID 0000.0001) // RANGE I (Lo:Hi:Step):(  -3:  80:   1)
(PID.TID 0000.0001) // RANGE J (Lo:Hi:Step):(  76:  -3:  -1)
(PID.TID 0000.0001) // RANGE K (Lo:Hi:Step):(   1:   1:   1)
(PID.TID 0000.0001) // =======================================================
(PID.TID 0000.0001) K =   1
(PID.TID 0000.0001) //                I=6       I=16      I=26      I=36      I=38      I=48      I=58      I=68      I=78
(PID.TID 0000.0001) // |--J--|321012345|789012345|789012345|789012345|789012567|901234567|901234567|901234567|901234567|90
(PID.TID 0000.0001) //     76 ...............................................................+............................
(PID.TID 0000.0001) //     75 ...............................................................+............................
(PID.TID 0000.0001) //     74 ............................................................................................
(PID.TID 0000.0001) //     73 ............................................................................................
(PID.TID 0000.0001) //     72 ....++++++++++++++++++++++..............................................................++++
(PID.TID 0000.0001) //     71 ....++++++++++++++++++++++..............................................................++++
(PID.TID 0000.0001) //     70 ....++++++++++++++++++++++..............................................................++++
(PID.TID 0000.0001) //     69 ....+++++++++++++++++++++++.............................................................++++
(PID.TID 0000.0001) //     68 ....+++++++++++++++++++++++.............................................................++++
(PID.TID 0000.0001) //     67 ....++++++++++++...+..++++++............................................................++++
(PID.TID 0000.0001) //     66 ....++++++++++........+++++++...........................................................++++
(PID.TID 0000.0001) //     65 ....+++++++++.........+++++++++.........................................................++++
(PID.TID 0000.0001) //     64 ....+++++++............+++++++++........................................................++++
(PID.TID 0000.0001) //     63 .....+++................++++++++.........................................................+++
(PID.TID 0000.0001) //     62 .....+...................++++++++........................................................+..
(PID.TID 0000.0001) //     61 ..........................++++++++..........................................................
(PID.TID 0000.0001) //     60 ..........................+++++++...........................................................
(PID.TID 0000.0001) //     59 ...............+.....++..+++++..............................................................
(PID.TID 0000.0001) //     58 ..........++...+++..+++++++++...............................................................
(PID.TID 0000.0001) //     57 .........+++...+++..++++++++................................................................
(PID.TID 0000.0001) //     56 .........+++...+++++++++++..................................................................
(PID.TID 0000.0001) //     55 .........+++++...++++++++...................................................................
(PID.TID 0000.0001) //     54 .........++.++...+++++++....................................................................
(PID.TID 0000.0001) //     53 .......++++.++...++++++....................................................................+
(PID.TID 0000.0001) //     52 ........+++........++++.....................................................................
(PID.TID 0000.0001) //     51 .........++........+++......................................................................
(PID.TID 0000.0001) //     50 .........+++.+.+............................................................................
(PID.TID 0000.0001) //     49 ..........++++++.+..........................................................................
(PID.TID 0000.0001) //     48 ..........+++++.............................................................................
(PID.TID 0000.0001) //     47 ..........+++++.............................................................................
(PID.TID 0000.0001) //     46 ...........++++.............................................................................
(PID.TID 0000.0001) //     45 ............++++............................................................................
(PID.TID 0000.0001) //     44 ............++++............................................................................
(PID.TID 0000.0001) //     43 ..........++++++..+...........................................++............................
(PID.TID 0000.0001) //     42 .........+++++++++++....................................+++++++++++.........................
(PID.TID 0000.0001) //     41 ........+++++++.+++++..................................++++++++++++++.......................
(PID.TID 0000.0001) //     40 ........+++++++.+++++.................................+++++++++++++++++.....................
(PID.TID 0000.0001) //     39 ..........+++++.+++++.................................++++++++++++++++++....................
(PID.TID 0000.0001) //     38 ..........+++++++++++.............+...................+++++++++++++++++++......++++.........
(PID.TID 0000.0001) //     37 ...........++++++++++++......+++++++.........+.......+++++++++++++++++++++++..++++++........
(PID.TID 0000.0001) //     36 ++.........++++++++++++....+++++++++.........+.......+++++++++++++++++++++++++++++++++......
(PID.TID 0000.0001) //     35 ++..........++++++++++++++++++++++++++......++......++++++++++++++++....++++++++++++++......
(PID.TID 0000.0001) //     34 +++.........++++++++++++++++++++++++++.....++......++.+++++++++++++.....+++++++++++++++.....
(PID.TID 0000.0001) //     33 +++...........+++++++++++++++++++++++++++++++.+++++++..+++++++++++..........+++++++++++.....
(PID.TID 0000.0001) //     40 ........+++++++.+++++.................................+++++++++++++++++.....................
(PID.TID 0000.0001) //     39 ..........+++++.+++++.................................++++++++++++++++++....................
(PID.TID 0000.0001) //     38 ..........+++++++++++.............+...................+++++++++++++++++++......++++.........
(PID.TID 0000.0001) //     37 ...........++++++++++++......+++++++.........+.......+++++++++++++++++++++++..++++++........
(PID.TID 0000.0001) //     36 ++.........++++++++++++....+++++++++.........+.......+++++++++++++++++++++++++++++++++......
(PID.TID 0000.0001) //     35 ++..........++++++++++++++++++++++++++......++......++++++++++++++++....++++++++++++++......
(PID.TID 0000.0001) //     34 +++.........++++++++++++++++++++++++++.....++......++.+++++++++++++.....+++++++++++++++.....
(PID.TID 0000.0001) //     33 +++...........+++++++++++++++++++++++++++++++.+++++++..+++++++++++..........+++++++++++.....
(PID.TID 0000.0001) //     32 +++...........++++++++++++++....+++++++++++++.+++++++..+++++++++.............++++++++++.....
(PID.TID 0000.0001) //     31 +++............+++++++++++++....+++++++++++++.+++++++..++++++.....................+.+++.....
(PID.TID 0000.0001) //     30 ...............+++++++++++++....+++++++++++++.+++++++.++++..................................
(PID.TID 0000.0001) //     29 ................+++++++++++++++++++++++++++++++++++++++.....................................
(PID.TID 0000.0001) //     28 ................+++++++++++++++++++++++++++++++++++++++.....................................
(PID.TID 0000.0001) //     27 ................++++++++++++++++++++++++++++++++++++++......................................
(PID.TID 0000.0001) //     26 ................++++++++++++++++++++++++++++++++++++++......................................
(PID.TID 0000.0001) //     25 ................+++++++++++++++++++++++++++++++++++++++.....................................
(PID.TID 0000.0001) //     24 ...............++++++++++++++++++++++++++++++++++++++++.....................................
(PID.TID 0000.0001) //     23 ..............+++++++++++++++++++++++++++++++++++++++++.....................................
(PID.TID 0000.0001) //     22 ...............++++++++++++++++++++++..+++++++.++++++++.....................................
(PID.TID 0000.0001) //     21 ................++.++++++++...+..++++...+.++++..+.+++++.....................................
(PID.TID 0000.0001) //     20 ...................++++++.........+++...+.++++..+.+++++.....................................
(PID.TID 0000.0001) //     19 ...................+++++...........+++....++++....++++++....................................
(PID.TID 0000.0001) //     18 ...................+++.............+++...+...+...+...++++...................................
(PID.TID 0000.0001) //     17 ...................++..............++++++.....+++.....+++...................................
(PID.TID 0000.0001) //     16 ..................................++++++......++.......++++.................................
(PID.TID 0000.0001) //     15 ..................................++++++......++........+++.................................
(PID.TID 0000.0001) //     14 .................................+++++++......++........++++................................
(PID.TID 0000.0001) //     13 .................................+++++...................++++...............................
(PID.TID 0000.0001) //     12 .................................+++.....................+++++..............................
(PID.TID 0000.0001) //     11 .........................................................+++++..............................
(PID.TID 0000.0001) //     10 .........................................................++++++.............................
(PID.TID 0000.0001) //      9 .........................................................++++++.............................
(PID.TID 0000.0001) //      8 ..........................................................++++++............................
(PID.TID 0000.0001) //      7 ..........................................................++.+++............................
(PID.TID 0000.0001) //      6 .............................................................+++............................
(PID.TID 0000.0001) //      5 .............................................................+++............................
(PID.TID 0000.0001) //      4 ...............................................................+............................
(PID.TID 0000.0001) //      3 ...............................................................+............................
(PID.TID 0000.0001) //      2 ............................................................................................
(PID.TID 0000.0001) //      1 ............................................................................................
(PID.TID 0000.0001) //      0 ....++++++++++++++++++++++..............................................................++++
(PID.TID 0000.0001) //     -1 ....++++++++++++++++++++++..............................................................++++
(PID.TID 0000.0001) //     -2 ....++++++++++++++++++++++..............................................................++++
(PID.TID 0000.0001) //     -3 ....+++++++++++++++++++++++.............................................................++++
(PID.TID 0000.0001) // =======================================================
(PID.TID 0000.0001) // END OF FIELD                                          =
(PID.TID 0000.0001) // =======================================================
(PID.TID 0000.0001) 
(PID.TID 0000.0001) 
(PID.TID 0000.0001) // ===================================
(PID.TID 0000.0001) // GAD parameters :
(PID.TID 0000.0001) // ===================================
(PID.TID 0000.0001) tempAdvScheme =   /* Temp. Horiz.Advection scheme selector */
(PID.TID 0000.0001)                       7
(PID.TID 0000.0001)     ;
(PID.TID 0000.0001) tempVertAdvScheme =   /* Temp. Vert. Advection scheme selector */
(PID.TID 0000.0001)                       7
(PID.TID 0000.0001)     ;
(PID.TID 0000.0001) tempMultiDimAdvec =   /* use Muti-Dim Advec method for Temp */
(PID.TID 0000.0001)                   T
(PID.TID 0000.0001)     ;
(PID.TID 0000.0001) tempSOM_Advection = /* use 2nd Order Moment Advection for Temp */
(PID.TID 0000.0001)                   F
(PID.TID 0000.0001)     ;
(PID.TID 0000.0001) AdamsBashforthGt = /* apply Adams-Bashforth extrapolation on Gt */
(PID.TID 0000.0001)                   F
(PID.TID 0000.0001)     ;
(PID.TID 0000.0001) AdamsBashforth_T = /* apply Adams-Bashforth extrapolation on Temp */
(PID.TID 0000.0001)                   F
(PID.TID 0000.0001)     ;
(PID.TID 0000.0001) saltAdvScheme =   /* Salt. Horiz.advection scheme selector */
(PID.TID 0000.0001)                       7
(PID.TID 0000.0001)     ;
(PID.TID 0000.0001) saltVertAdvScheme =   /* Salt. Vert. Advection scheme selector */
(PID.TID 0000.0001)                       7
(PID.TID 0000.0001)     ;
(PID.TID 0000.0001) saltMultiDimAdvec =   /* use Muti-Dim Advec method for Salt */
(PID.TID 0000.0001)                   T
(PID.TID 0000.0001)     ;
(PID.TID 0000.0001) saltSOM_Advection = /* use 2nd Order Moment Advection for Salt */
(PID.TID 0000.0001)                   F
(PID.TID 0000.0001)     ;
(PID.TID 0000.0001) AdamsBashforthGs = /* apply Adams-Bashforth extrapolation on Gs */
(PID.TID 0000.0001)                   F
(PID.TID 0000.0001)     ;
(PID.TID 0000.0001) AdamsBashforth_S = /* apply Adams-Bashforth extrapolation on Salt */
(PID.TID 0000.0001)                   F
(PID.TID 0000.0001)     ;
(PID.TID 0000.0001) // ===================================
(PID.TID 0000.0001) 
(PID.TID 0000.0001) // =======================================================
(PID.TID 0000.0001) // External forcing configuration >>> START <<<
(PID.TID 0000.0001) // =======================================================
(PID.TID 0000.0001) 
(PID.TID 0000.0001)  EXF general parameters:
(PID.TID 0000.0001) 
(PID.TID 0000.0001) exf_yftype =  /* ? */
(PID.TID 0000.0001)               'RL'
(PID.TID 0000.0001)     ;
(PID.TID 0000.0001) exf_iprec = /* exf file precision */
(PID.TID 0000.0001)                      32
(PID.TID 0000.0001)     ;
(PID.TID 0000.0001) useExfYearlyFields = /* add extension _YEAR to input file names */
(PID.TID 0000.0001)                   T
(PID.TID 0000.0001)     ;
(PID.TID 0000.0001) twoDigitYear = /* use 2-digit year extension */
(PID.TID 0000.0001)                   T
(PID.TID 0000.0001)     ;
(PID.TID 0000.0001) useExfCheckRange = /* check for fields range */
(PID.TID 0000.0001)                   F
(PID.TID 0000.0001)     ;
(PID.TID 0000.0001) exf_monFreq = /* EXF monitor frequency [ s ] */
(PID.TID 0000.0001)                 1.200000000000000E+03
(PID.TID 0000.0001)     ;
(PID.TID 0000.0001) repeatPeriod = /* period for cycling forcing dataset [ s ] */
(PID.TID 0000.0001)                 0.000000000000000E+00
(PID.TID 0000.0001)     ;
(PID.TID 0000.0001) climTempFreeze= /* Minimum climatological temperature [deg.C] */
(PID.TID 0000.0001)                -1.900000000000000E+00
(PID.TID 0000.0001)     ;
(PID.TID 0000.0001) windStressMax = /* Maximum absolute windstress [ Pa ] */
(PID.TID 0000.0001)                 2.000000000000000E+00
(PID.TID 0000.0001)     ;
(PID.TID 0000.0001) stressIsOnCgrid = /* set u,v_stress on Arakawa C-grid */
(PID.TID 0000.0001)                   F
(PID.TID 0000.0001)     ;
(PID.TID 0000.0001) cen2kel = /* conversion of deg. Centigrade to Kelvin [K] */
(PID.TID 0000.0001)                 2.731500000000000E+02
(PID.TID 0000.0001)     ;
(PID.TID 0000.0001) gravity_mks= /* gravitational acceleration [m/s^2] */
(PID.TID 0000.0001)                 9.810000000000000E+00
(PID.TID 0000.0001)     ;
(PID.TID 0000.0001) atmrho =  /* mean atmospheric density [kg/m^3] */
(PID.TID 0000.0001)                 1.200000000000000E+00
(PID.TID 0000.0001)     ;
(PID.TID 0000.0001) atmcp =  /* mean atmospheric specific heat [J/kg/K] */
(PID.TID 0000.0001)                 1.005000000000000E+03
(PID.TID 0000.0001)     ;
(PID.TID 0000.0001) flamb =  /* latent heat of evaporation [J/kg] */
(PID.TID 0000.0001)                 2.500000000000000E+06
(PID.TID 0000.0001)     ;
(PID.TID 0000.0001) flami =  /* latent heat of pure-ice melting [J/kg] */
(PID.TID 0000.0001)                 3.340000000000000E+05
(PID.TID 0000.0001)     ;
(PID.TID 0000.0001) cvapor_fac = /* const. for Saturation calculation [?] */
(PID.TID 0000.0001)                 6.403800000000000E+05
(PID.TID 0000.0001)     ;
(PID.TID 0000.0001) cvapor_exp = /* const. for Saturation calculation [?] */
(PID.TID 0000.0001)                 5.107400000000000E+03
(PID.TID 0000.0001)     ;
(PID.TID 0000.0001) cvapor_fac_ice= /* const. for Saturation calculation [?] */
(PID.TID 0000.0001)                 1.163780000000000E+07
(PID.TID 0000.0001)     ;
(PID.TID 0000.0001) cvapor_exp_ice= /* const. for Saturation calculation [?] */
(PID.TID 0000.0001)                 5.897800000000000E+03
(PID.TID 0000.0001)     ;
(PID.TID 0000.0001) humid_fac = /* humidity coef. in virtual temp. [(kg/kg)^-1] */
(PID.TID 0000.0001)                 6.060000000000000E-01
(PID.TID 0000.0001)     ;
(PID.TID 0000.0001) gamma_blk = /* adiabatic lapse rate [?] */
(PID.TID 0000.0001)                 1.000000000000000E-02
(PID.TID 0000.0001)     ;
(PID.TID 0000.0001) saltsat = /* reduction of Qsat over salty water [-] */
(PID.TID 0000.0001)                 9.800000000000000E-01
(PID.TID 0000.0001)     ;
(PID.TID 0000.0001) noNegativeEvap = /* prevent negative Evaporation */
(PID.TID 0000.0001)                   F
(PID.TID 0000.0001)     ;
(PID.TID 0000.0001) sstExtrapol = /* extrapolation coeff from lev. 1 & 2 to surf [-] */
(PID.TID 0000.0001)                 0.000000000000000E+00
(PID.TID 0000.0001)     ;
(PID.TID 0000.0001) cDrag_1 = /* coef used in drag calculation [?] */
(PID.TID 0000.0001)                 2.700000000000000E-03
(PID.TID 0000.0001)     ;
(PID.TID 0000.0001) cDrag_2 = /* coef used in drag calculation [?] */
(PID.TID 0000.0001)                 1.420000000000000E-04
(PID.TID 0000.0001)     ;
(PID.TID 0000.0001) cDrag_3 = /* coef used in drag calculation [?] */
(PID.TID 0000.0001)                 7.640000000000000E-05
(PID.TID 0000.0001)     ;
(PID.TID 0000.0001) cStanton_1 = /* coef used in Stanton number calculation [?] */
(PID.TID 0000.0001)                 3.270000000000000E-02
(PID.TID 0000.0001)     ;
(PID.TID 0000.0001) cStanton_2 = /* coef used in Stanton number calculation [?] */
(PID.TID 0000.0001)                 1.800000000000000E-02
(PID.TID 0000.0001)     ;
(PID.TID 0000.0001) cDalton = /* coef used in Dalton number calculation [?] */
(PID.TID 0000.0001)                 3.460000000000000E-02
(PID.TID 0000.0001)     ;
(PID.TID 0000.0001) exf_scal_BulkCdn= /* Drag coefficient scaling factor [-] */
(PID.TID 0000.0001)                 1.000000000000000E+00
(PID.TID 0000.0001)     ;
(PID.TID 0000.0001) zolmin = /* minimum stability parameter [?] */
(PID.TID 0000.0001)                -1.000000000000000E+02
(PID.TID 0000.0001)     ;
(PID.TID 0000.0001) psim_fac = /* coef used in turbulent fluxes calculation [-] */
(PID.TID 0000.0001)                 5.000000000000000E+00
(PID.TID 0000.0001)     ;
(PID.TID 0000.0001) zref =  /* reference height [ m ] */
(PID.TID 0000.0001)                 1.000000000000000E+01
(PID.TID 0000.0001)     ;
(PID.TID 0000.0001) hu =  /* height of mean wind [ m ] */
(PID.TID 0000.0001)                 1.000000000000000E+01
(PID.TID 0000.0001)     ;
(PID.TID 0000.0001) ht =  /* height of mean temperature [ m ] */
(PID.TID 0000.0001)                 2.000000000000000E+00
(PID.TID 0000.0001)     ;
(PID.TID 0000.0001) hq =  /* height of mean spec.humidity [ m ] */
(PID.TID 0000.0001)                 2.000000000000000E+00
(PID.TID 0000.0001)     ;
(PID.TID 0000.0001) uMin = /* minimum wind speed [m/s] */
(PID.TID 0000.0001)                 5.000000000000000E-01
(PID.TID 0000.0001)     ;
(PID.TID 0000.0001) useStabilityFct_overIce= /* transfert Coeffs over sea-ice depend on stability */
(PID.TID 0000.0001)                   F
(PID.TID 0000.0001)     ;
(PID.TID 0000.0001) exf_iceCd = /* drag coefficient over sea-ice (fixed) [-] */
(PID.TID 0000.0001)                 1.630000000000000E-03
(PID.TID 0000.0001)     ;
(PID.TID 0000.0001) exf_iceCe = /* transfert coeff. over sea-ice, for Evap (fixed) [-] */
(PID.TID 0000.0001)                 1.630000000000000E-03
(PID.TID 0000.0001)     ;
(PID.TID 0000.0001) exf_iceCh = /* transfert coeff. over sea-ice, Sens.Heat.(fixed)[-] */
(PID.TID 0000.0001)                 1.630000000000000E-03
(PID.TID 0000.0001)     ;
(PID.TID 0000.0001) exf_albedo =  /* Sea-water albedo [-] */
(PID.TID 0000.0001)                 1.500000000000000E-01
(PID.TID 0000.0001)     ;
(PID.TID 0000.0001) ocean_emissivity = /* longwave ocean-surface emissivity [-] */
(PID.TID 0000.0001)                 9.700176366843034E-01
(PID.TID 0000.0001)     ;
(PID.TID 0000.0001) ice_emissivity = /* longwave seaice emissivity [-] */
(PID.TID 0000.0001)                 9.500000000000000E-01
(PID.TID 0000.0001)     ;
(PID.TID 0000.0001) snow_emissivity = /* longwave snow  emissivity [-] */
(PID.TID 0000.0001)                 9.500000000000000E-01
(PID.TID 0000.0001)     ;
(PID.TID 0000.0001) 
(PID.TID 0000.0001)  EXF main CPP flags:
(PID.TID 0000.0001) 
(PID.TID 0000.0001) // ALLOW_ATM_TEMP:                     defined
(PID.TID 0000.0001) // ALLOW_ATM_WIND:                     defined
(PID.TID 0000.0001) // ALLOW_DOWNWARD_RADIATION:           defined
(PID.TID 0000.0001) // ALLOW_BULKFORMULAE:                 defined
(PID.TID 0000.0001) 
(PID.TID 0000.0001)    Net shortwave flux forcing starts at                0.
(PID.TID 0000.0001)    Net shortwave flux forcing period is                0.
(PID.TID 0000.0001)    Net shortwave flux forcing is read from file:
(PID.TID 0000.0001)    >>    <<
(PID.TID 0000.0001) 
(PID.TID 0000.0001)    Zonal wind forcing starts at                    5140800.
(PID.TID 0000.0001)    Zonal wind forcing period is                      21600.
(PID.TID 0000.0001)    Zonal wind forcing is read from file:
(PID.TID 0000.0001)    >>  RG_u10m  <<
(PID.TID 0000.0001) 
(PID.TID 0000.0001)    Meridional wind forcing starts at               5140800.
(PID.TID 0000.0001)    Meridional wind forcing period is                 21600.
(PID.TID 0000.0001)    Meridional wind forcing is read from file:
(PID.TID 0000.0001)    >>  RG_v10m  <<
(PID.TID 0000.0001) 
(PID.TID 0000.0001)    Atmospheric temperature starts at               5140800.
(PID.TID 0000.0001)    Atmospheric temperature period is                 21600.
(PID.TID 0000.0001)    Atmospheric temperature is read from file:
(PID.TID 0000.0001)    >>  RG_tmp2m  <<
(PID.TID 0000.0001) 
(PID.TID 0000.0001)    Atmospheric specific humidity starts at         5140800.
(PID.TID 0000.0001)    Atmospheric specific humidity period is           21600.
(PID.TID 0000.0001)    Atmospheric specific humidity is read from file:
(PID.TID 0000.0001)    >>  RG_spfh2m  <<
(PID.TID 0000.0001) 
(PID.TID 0000.0001)    Net longwave flux forcing starts at                 0.
(PID.TID 0000.0001)    Net longwave flux forcing period is                 0.
(PID.TID 0000.0001)    Net longwave flux forcing is read from file:
(PID.TID 0000.0001)    >>    <<
(PID.TID 0000.0001) 
(PID.TID 0000.0001)    Precipitation data set starts at                5140800.
(PID.TID 0000.0001)    Precipitation data period is                      21600.
(PID.TID 0000.0001)    Precipitation data is read from file:
(PID.TID 0000.0001)    >>  RG_rain  <<
(PID.TID 0000.0001) 
(PID.TID 0000.0001) // EXF_READ_EVAP:                  NOT defined
(PID.TID 0000.0001) 
(PID.TID 0000.0001) // ALLOW_RUNOFF:                       defined
(PID.TID 0000.0001)    Runoff starts at               0.
(PID.TID 0000.0001)    Runoff period is             -12.
(PID.TID 0000.0001)    Runoff is read from file:
(PID.TID 0000.0001)    >>  runoff-360x180x12.bin  <<
(PID.TID 0000.0001) 
(PID.TID 0000.0001)    Atmospheric pressure forcing starts at                0.
(PID.TID 0000.0001)    Atmospheric pressure forcing period is                0.
(PID.TID 0000.0001)    Atmospheric pressureforcing is read from file:
(PID.TID 0000.0001)    >>    <<
(PID.TID 0000.0001) 
(PID.TID 0000.0001) // =======================================================
(PID.TID 0000.0001) // External forcing configuration  >>> END <<<
(PID.TID 0000.0001) // =======================================================
(PID.TID 0000.0001) 
(PID.TID 0000.0001) 
(PID.TID 0000.0001) // =======================================================
(PID.TID 0000.0001) // External forcing climatology configuration >>> START <<<
(PID.TID 0000.0001) // =======================================================
(PID.TID 0000.0001) 
(PID.TID 0000.0001) // ALLOW_CLIMSST_RELAXATION:       NOT defined
(PID.TID 0000.0001) // ALLOW_CLIMSSS_RELAXATION:           defined
(PID.TID 0000.0001) 
(PID.TID 0000.0001)    Climatological SSS starts at                   0.
(PID.TID 0000.0001)    Climatological SSS period is                 -12.
(PID.TID 0000.0001)    Climatological SSS is read from file:
(PID.TID 0000.0001)    >>  LEV01_SSS_360x180x12.bin  <<
(PID.TID 0000.0001) 
(PID.TID 0000.0001) // =======================================================
(PID.TID 0000.0001) // External forcing climatology configuration  >>> END <<<
(PID.TID 0000.0001) // =======================================================
(PID.TID 0000.0001) 
(PID.TID 0000.0001) PTRACERS_INIT_FIXED: PTRACERS_SOM_Advection(   1) =     F
(PID.TID 0000.0001) PTRACERS_INIT_FIXED: PTRACERS_SOM_Advection(   2) =     F
(PID.TID 0000.0001) PTRACERS_INIT_FIXED: PTRACERS_SOM_Advection(   3) =     F
(PID.TID 0000.0001) PTRACERS_INIT_FIXED: PTRACERS_SOM_Advection(   4) =     F
(PID.TID 0000.0001) PTRACERS_INIT_FIXED: PTRACERS_SOM_Advection(   5) =     F
(PID.TID 0000.0001) PTRACERS_INIT_FIXED: PTRACERS_SOM_Advection(   6) =     F
(PID.TID 0000.0001) PTRACERS_INIT_FIXED: PTRACERS_SOM_Advection(   7) =     F
(PID.TID 0000.0001) PTRACERS_INIT_FIXED: PTRACERS_SOM_Advection(   8) =     F
(PID.TID 0000.0001) PTRACERS_INIT_FIXED: PTRACERS_SOM_Advection(   9) =     F
(PID.TID 0000.0001) PTRACERS_INIT_FIXED: PTRACERS_SOM_Advection(  10) =     F
(PID.TID 0000.0001) PTRACERS_INIT_FIXED: PTRACERS_SOM_Advection(  11) =     F
(PID.TID 0000.0001) PTRACERS_INIT_FIXED: PTRACERS_SOM_Advection(  12) =     F
(PID.TID 0000.0001) PTRACERS_INIT_FIXED: PTRACERS_SOM_Advection(  13) =     F
(PID.TID 0000.0001) PTRACERS_INIT_FIXED: PTRACERS_SOM_Advection(  14) =     F
(PID.TID 0000.0001) PTRACERS_INIT_FIXED: PTRACERS_SOM_Advection(  15) =     F
(PID.TID 0000.0001) PTRACERS_INIT_FIXED: PTRACERS_SOM_Advection(  16) =     F
(PID.TID 0000.0001) PTRACERS_INIT_FIXED: PTRACERS_SOM_Advection(  17) =     F
(PID.TID 0000.0001) PTRACERS_INIT_FIXED: PTRACERS_SOM_Advection(  18) =     F
(PID.TID 0000.0001) PTRACERS_INIT_FIXED: PTRACERS_SOM_Advection(  19) =     F
(PID.TID 0000.0001) PTRACERS_INIT_FIXED: PTRACERS_SOM_Advection(  20) =     F
(PID.TID 0000.0001) PTRACERS_INIT_FIXED: PTRACERS_SOM_Advection(  21) =     F
(PID.TID 0000.0001) PTRACERS_INIT_FIXED: PTRACERS_SOM_Advection(  22) =     F
(PID.TID 0000.0001) PTRACERS_INIT_FIXED: PTRACERS_SOM_Advection(  23) =     F
(PID.TID 0000.0001) PTRACERS_INIT_FIXED: PTRACERS_SOM_Advection(  24) =     F
(PID.TID 0000.0001) PTRACERS_INIT_FIXED: PTRACERS_SOM_Advection(  25) =     F
(PID.TID 0000.0001) PTRACERS_INIT_FIXED: PTRACERS_SOM_Advection(  26) =     F
(PID.TID 0000.0001) PTRACERS_INIT_FIXED: PTRACERS_SOM_Advection(  27) =     F
(PID.TID 0000.0001) PTRACERS_INIT_FIXED: PTRACERS_SOM_Advection(  28) =     F
(PID.TID 0000.0001) PTRACERS_INIT_FIXED: PTRACERS_SOM_Advection(  29) =     F
(PID.TID 0000.0001) PTRACERS_INIT_FIXED: PTRACERS_SOM_Advection(  30) =     F
(PID.TID 0000.0001) PTRACERS_INIT_FIXED: PTRACERS_SOM_Advection(  31) =     F
(PID.TID 0000.0001) PTRACERS_INIT_FIXED: PTRACERS_SOM_Advection(  32) =     F
(PID.TID 0000.0001) PTRACERS_INIT_FIXED: PTRACERS_SOM_Advection(  33) =     F
(PID.TID 0000.0001) PTRACERS_INIT_FIXED: PTRACERS_SOM_Advection(  34) =     F
(PID.TID 0000.0001) PTRACERS_INIT_FIXED: PTRACERS_SOM_Advection(  35) =     F
(PID.TID 0000.0001) PTRACERS_INIT_FIXED: PTRACERS_SOM_Advection(  36) =     F
(PID.TID 0000.0001) PTRACERS_INIT_FIXED: PTRACERS_SOM_Advection(  37) =     F
(PID.TID 0000.0001) PTRACERS_INIT_FIXED: PTRACERS_SOM_Advection(  38) =     F
(PID.TID 0000.0001) PTRACERS_INIT_FIXED: PTRACERS_SOM_Advection(  39) =     F
(PID.TID 0000.0001) PTRACERS_INIT_FIXED: PTRACERS_SOM_Advection(  40) =     F
(PID.TID 0000.0001) PTRACERS_INIT_FIXED: PTRACERS_SOM_Advection(  41) =     F
(PID.TID 0000.0001) PTRACERS_INIT_FIXED: PTRACERS_SOM_Advection(  42) =     F
(PID.TID 0000.0001) PTRACERS_INIT_FIXED: PTRACERS_SOM_Advection(  43) =     F
(PID.TID 0000.0001) PTRACERS_INIT_FIXED: PTRACERS_SOM_Advection(  44) =     F
(PID.TID 0000.0001) PTRACERS_INIT_FIXED: PTRACERS_SOM_Advection(  45) =     F
(PID.TID 0000.0001) PTRACERS_INIT_FIXED: PTRACERS_SOM_Advection(  46) =     F
(PID.TID 0000.0001) PTRACERS_INIT_FIXED: PTRACERS_SOM_Advection(  47) =     F
(PID.TID 0000.0001) PTRACERS_INIT_FIXED: PTRACERS_SOM_Advection(  48) =     F
(PID.TID 0000.0001) PTRACERS_INIT_FIXED: PTRACERS_SOM_Advection(  49) =     F
(PID.TID 0000.0001) PTRACERS_INIT_FIXED: PTRACERS_SOM_Advection(  50) =     F
(PID.TID 0000.0001) PTRACERS_INIT_FIXED: PTRACERS_SOM_Advection(  51) =     F
(PID.TID 0000.0001) PTRACERS_INIT_FIXED: PTRACERS_SOM_Advection(  52) =     F
(PID.TID 0000.0001) PTRACERS_INIT_FIXED: PTRACERS_SOM_Advection(  53) =     F
(PID.TID 0000.0001) PTRACERS_INIT_FIXED: PTRACERS_SOM_Advection(  54) =     F
(PID.TID 0000.0001) PTRACERS_INIT_FIXED: PTRACERS_SOM_Advection(  55) =     F
(PID.TID 0000.0001) PTRACERS_INIT_FIXED: PTRACERS_SOM_Advection(  56) =     F
(PID.TID 0000.0001) PTRACERS_INIT_FIXED: PTRACERS_SOM_Advection(  57) =     F
(PID.TID 0000.0001) PTRACERS_INIT_FIXED: PTRACERS_SOM_Advection(  58) =     F
(PID.TID 0000.0001) PTRACERS_INIT_FIXED: PTRACERS_SOM_Advection(  59) =     F
(PID.TID 0000.0001) PTRACERS_INIT_FIXED: PTRACERS_SOM_Advection(  60) =     F
(PID.TID 0000.0001) PTRACERS_INIT_FIXED: PTRACERS_SOM_Advection(  61) =     F
(PID.TID 0000.0001) PTRACERS_INIT_FIXED: PTRACERS_SOM_Advection(  62) =     F
(PID.TID 0000.0001) PTRACERS_INIT_FIXED: PTRACERS_SOM_Advection(  63) =     F
(PID.TID 0000.0001) PTRACERS_INIT_FIXED: PTRACERS_SOM_Advection(  64) =     F
(PID.TID 0000.0001) PTRACERS_INIT_FIXED: PTRACERS_SOM_Advection(  65) =     F
(PID.TID 0000.0001) PTRACERS_INIT_FIXED: PTRACERS_SOM_Advection(  66) =     F
(PID.TID 0000.0001) PTRACERS_INIT_FIXED: PTRACERS_SOM_Advection(  67) =     F
(PID.TID 0000.0001) PTRACERS_INIT_FIXED: PTRACERS_SOM_Advection(  68) =     F
(PID.TID 0000.0001) PTRACERS_INIT_FIXED: PTRACERS_SOM_Advection(  69) =     F
(PID.TID 0000.0001) PTRACERS_INIT_FIXED: PTRACERS_SOM_Advection(  70) =     F
(PID.TID 0000.0001) PTRACERS_INIT_FIXED: PTRACERS_SOM_Advection(  71) =     F
(PID.TID 0000.0001) PTRACERS_INIT_FIXED: PTRACERS_SOM_Advection(  72) =     F
(PID.TID 0000.0001) PTRACERS_INIT_FIXED: PTRACERS_SOM_Advection(  73) =     F
(PID.TID 0000.0001) PTRACERS_INIT_FIXED: PTRACERS_SOM_Advection(  74) =     F
(PID.TID 0000.0001) PTRACERS_INIT_FIXED: PTRACERS_SOM_Advection(  75) =     F
(PID.TID 0000.0001) PTRACERS_INIT_FIXED: PTRACERS_SOM_Advection(  76) =     F
(PID.TID 0000.0001) PTRACERS_INIT_FIXED: PTRACERS_SOM_Advection(  77) =     F
(PID.TID 0000.0001) PTRACERS_INIT_FIXED: PTRACERS_SOM_Advection(  78) =     F
(PID.TID 0000.0001) PTRACERS_INIT_FIXED: PTRACERS_SOM_Advection(  79) =     F
(PID.TID 0000.0001) PTRACERS_INIT_FIXED: PTRACERS_SOM_Advection(  80) =     F
(PID.TID 0000.0001) PTRACERS_INIT_FIXED: PTRACERS_SOM_Advection(  81) =     F
(PID.TID 0000.0001) PTRACERS_INIT_FIXED: PTRACERS_SOM_Advection(  82) =     F
(PID.TID 0000.0001) PTRACERS_INIT_FIXED: PTRACERS_SOM_Advection(  83) =     F
(PID.TID 0000.0001) PTRACERS_INIT_FIXED: PTRACERS_SOM_Advection(  84) =     F
(PID.TID 0000.0001) PTRACERS_INIT_FIXED: PTRACERS_SOM_Advection(  85) =     F
(PID.TID 0000.0001) PTRACERS_INIT_FIXED: PTRACERS_SOM_Advection(  86) =     F
(PID.TID 0000.0001) PTRACERS_INIT_FIXED: PTRACERS_SOM_Advection(  87) =     F
(PID.TID 0000.0001) PTRACERS_INIT_FIXED: PTRACERS_SOM_Advection(  88) =     F
(PID.TID 0000.0001) PTRACERS_INIT_FIXED: PTRACERS_SOM_Advection(  89) =     F
(PID.TID 0000.0001) PTRACERS_INIT_FIXED: PTRACERS_SOM_Advection(  90) =     F
(PID.TID 0000.0001) PTRACERS_INIT_FIXED: PTRACERS_SOM_Advection(  91) =     F
(PID.TID 0000.0001) PTRACERS_INIT_FIXED: PTRACERS_SOM_Advection(  92) =     F
(PID.TID 0000.0001) PTRACERS_INIT_FIXED: PTRACERS_SOM_Advection(  93) =     F
(PID.TID 0000.0001) PTRACERS_INIT_FIXED: PTRACERS_SOM_Advection(  94) =     F
(PID.TID 0000.0001) PTRACERS_INIT_FIXED: PTRACERS_SOM_Advection(  95) =     F
(PID.TID 0000.0001) PTRACERS_INIT_FIXED: PTRACERS_SOM_Advection(  96) =     F
(PID.TID 0000.0001) PTRACERS_INIT_FIXED: PTRACERS_SOM_Advection(  97) =     F
(PID.TID 0000.0001) PTRACERS_INIT_FIXED: PTRACERS_SOM_Advection(  98) =     F
(PID.TID 0000.0001) PTRACERS_INIT_FIXED: PTRACERS_SOM_Advection(  99) =     F
(PID.TID 0000.0001) // =======================================================
(PID.TID 0000.0001) // Darwin loading parameters
(PID.TID 0000.0001) // =======================================================
(PID.TID 0000.0001) ------------------------------------------------------------
(PID.TID 0000.0001) DIAGNOSTICS_SET_LEVELS: done
(PID.TID 0000.0001)  Total Nb of available Diagnostics: ndiagt=  1411
(PID.TID 0000.0001)  write list of available Diagnostics to file: available_diagnostics.log
(PID.TID 0000.0001) SETDIAG: Allocate 24 x  1 Levels for Diagnostic #    26 THETA
(PID.TID 0000.0001) SETDIAG: Allocate 24 x  1 Levels for Diagnostic #    29 SALTanom
(PID.TID 0000.0001) SETDIAG: Allocate  1 x  1 Levels for Diagnostic #  1372 SIarea
(PID.TID 0000.0001) SETDIAG: Allocate  1 x  1 Levels for Diagnostic #  1373 SIheff
(PID.TID 0000.0001) SETDIAG: Allocate  1 x  1 Levels for Diagnostic #  1376 SIhsnow
(PID.TID 0000.0001) SETDIAG: Allocate  1 x  1 Levels for Diagnostic #  1386 SIqsw
(PID.TID 0000.0001) SETDIAG: Allocate  1 x  1 Levels for Diagnostic #  1372 SIarea
(PID.TID 0000.0001) SETDIAG: Allocate  1 x  1 Levels for Diagnostic #  1373 SIheff
(PID.TID 0000.0001) SETDIAG: Allocate  1 x  1 Levels for Diagnostic #  1376 SIhsnow
(PID.TID 0000.0001) SETDIAG: Allocate  1 x  1 Levels for Diagnostic #  1386 SIqsw
(PID.TID 0000.0001) SETDIAG: Allocate 24 x  1 Levels for Diagnostic #  1280 PAR
(PID.TID 0000.0001) SETDIAG: Allocate 24 x  1 Levels for Diagnostic #  1281 PP
(PID.TID 0000.0001) SETDIAG: Allocate 24 x  1 Levels for Diagnostic #  1282 Nfix
(PID.TID 0000.0001) SETDIAG: Allocate 24 x  1 Levels for Diagnostic #  1280 PAR
(PID.TID 0000.0001) SETDIAG: Allocate 24 x  1 Levels for Diagnostic #  1281 PP
(PID.TID 0000.0001) SETDIAG: Allocate 24 x  1 Levels for Diagnostic #  1282 Nfix
(PID.TID 0000.0001) SETDIAG: Allocate 24 x  1 Levels for Diagnostic #   191 TRAC01
(PID.TID 0000.0001) SETDIAG: Allocate 24 x  1 Levels for Diagnostic #   202 TRAC02
(PID.TID 0000.0001) SETDIAG: Allocate 24 x  1 Levels for Diagnostic #   213 TRAC03
(PID.TID 0000.0001) SETDIAG: Allocate 24 x  1 Levels for Diagnostic #   224 TRAC04
(PID.TID 0000.0001) SETDIAG: Allocate 24 x  1 Levels for Diagnostic #   235 TRAC05
(PID.TID 0000.0001) SETDIAG: Allocate 24 x  1 Levels for Diagnostic #   246 TRAC06
(PID.TID 0000.0001) SETDIAG: Allocate 24 x  1 Levels for Diagnostic #   257 TRAC07
(PID.TID 0000.0001) SETDIAG: Allocate 24 x  1 Levels for Diagnostic #   268 TRAC08
(PID.TID 0000.0001) SETDIAG: Allocate 24 x  1 Levels for Diagnostic #   279 TRAC09
(PID.TID 0000.0001) SETDIAG: Allocate 24 x  1 Levels for Diagnostic #   290 TRAC10
(PID.TID 0000.0001) SETDIAG: Allocate 24 x  1 Levels for Diagnostic #   301 TRAC11
(PID.TID 0000.0001) SETDIAG: Allocate 24 x  1 Levels for Diagnostic #   312 TRAC12
(PID.TID 0000.0001) SETDIAG: Allocate 24 x  1 Levels for Diagnostic #   323 TRAC13
(PID.TID 0000.0001) SETDIAG: Allocate 24 x  1 Levels for Diagnostic #   334 TRAC14
(PID.TID 0000.0001) SETDIAG: Allocate 24 x  1 Levels for Diagnostic #   345 TRAC15
(PID.TID 0000.0001) SETDIAG: Allocate 24 x  1 Levels for Diagnostic #   356 TRAC16
(PID.TID 0000.0001) SETDIAG: Allocate 24 x  1 Levels for Diagnostic #   367 TRAC17
(PID.TID 0000.0001) SETDIAG: Allocate 24 x  1 Levels for Diagnostic #   378 TRAC18
(PID.TID 0000.0001) SETDIAG: Allocate 24 x  1 Levels for Diagnostic #   389 TRAC19
(PID.TID 0000.0001) SETDIAG: Allocate 24 x  1 Levels for Diagnostic #   400 TRAC20
(PID.TID 0000.0001) SETDIAG: Allocate 24 x  1 Levels for Diagnostic #   411 TRAC21
(PID.TID 0000.0001) SETDIAG: Allocate 24 x  1 Levels for Diagnostic #   422 TRAC22
(PID.TID 0000.0001) SETDIAG: Allocate 24 x  1 Levels for Diagnostic #   433 TRAC23
(PID.TID 0000.0001) SETDIAG: Allocate 24 x  1 Levels for Diagnostic #   444 TRAC24
(PID.TID 0000.0001) SETDIAG: Allocate 24 x  1 Levels for Diagnostic #   455 TRAC25
(PID.TID 0000.0001) SETDIAG: Allocate 24 x  1 Levels for Diagnostic #   466 TRAC26
(PID.TID 0000.0001) SETDIAG: Allocate 24 x  1 Levels for Diagnostic #   477 TRAC27
(PID.TID 0000.0001) SETDIAG: Allocate 24 x  1 Levels for Diagnostic #   488 TRAC28
(PID.TID 0000.0001) SETDIAG: Allocate 24 x  1 Levels for Diagnostic #   499 TRAC29
(PID.TID 0000.0001) SETDIAG: Allocate 24 x  1 Levels for Diagnostic #   510 TRAC30
(PID.TID 0000.0001) SETDIAG: Allocate 24 x  1 Levels for Diagnostic #   521 TRAC31
(PID.TID 0000.0001) SETDIAG: Allocate 24 x  1 Levels for Diagnostic #   532 TRAC32
(PID.TID 0000.0001) SETDIAG: Allocate 24 x  1 Levels for Diagnostic #   543 TRAC33
(PID.TID 0000.0001) SETDIAG: Allocate 24 x  1 Levels for Diagnostic #   554 TRAC34
(PID.TID 0000.0001) SETDIAG: Allocate 24 x  1 Levels for Diagnostic #   565 TRAC35
(PID.TID 0000.0001) SETDIAG: Allocate 24 x  1 Levels for Diagnostic #   576 TRAC36
(PID.TID 0000.0001) SETDIAG: Allocate 24 x  1 Levels for Diagnostic #   587 TRAC37
(PID.TID 0000.0001) SETDIAG: Allocate 24 x  1 Levels for Diagnostic #   598 TRAC38
(PID.TID 0000.0001) SETDIAG: Allocate 24 x  1 Levels for Diagnostic #   609 TRAC39
(PID.TID 0000.0001) SETDIAG: Allocate 24 x  1 Levels for Diagnostic #   620 TRAC40
(PID.TID 0000.0001) SETDIAG: Allocate 24 x  1 Levels for Diagnostic #   631 TRAC41
(PID.TID 0000.0001) SETDIAG: Allocate 24 x  1 Levels for Diagnostic #   642 TRAC42
(PID.TID 0000.0001) SETDIAG: Allocate 24 x  1 Levels for Diagnostic #   653 TRAC43
(PID.TID 0000.0001) SETDIAG: Allocate 24 x  1 Levels for Diagnostic #   664 TRAC44
(PID.TID 0000.0001) SETDIAG: Allocate 24 x  1 Levels for Diagnostic #   675 TRAC45
(PID.TID 0000.0001) SETDIAG: Allocate 24 x  1 Levels for Diagnostic #   686 TRAC46
(PID.TID 0000.0001) SETDIAG: Allocate 24 x  1 Levels for Diagnostic #   697 TRAC47
(PID.TID 0000.0001) SETDIAG: Allocate 24 x  1 Levels for Diagnostic #   708 TRAC48
(PID.TID 0000.0001) SETDIAG: Allocate 24 x  1 Levels for Diagnostic #   719 TRAC49
(PID.TID 0000.0001) SETDIAG: Allocate 24 x  1 Levels for Diagnostic #   730 TRAC50
(PID.TID 0000.0001) SETDIAG: Allocate 24 x  1 Levels for Diagnostic #   741 TRAC51
(PID.TID 0000.0001) SETDIAG: Allocate 24 x  1 Levels for Diagnostic #   752 TRAC52
(PID.TID 0000.0001) SETDIAG: Allocate 24 x  1 Levels for Diagnostic #   763 TRAC53
(PID.TID 0000.0001) SETDIAG: Allocate 24 x  1 Levels for Diagnostic #   774 TRAC54
(PID.TID 0000.0001) SETDIAG: Allocate 24 x  1 Levels for Diagnostic #   785 TRAC55
(PID.TID 0000.0001) SETDIAG: Allocate 24 x  1 Levels for Diagnostic #   796 TRAC56
(PID.TID 0000.0001) SETDIAG: Allocate 24 x  1 Levels for Diagnostic #   807 TRAC57
(PID.TID 0000.0001) SETDIAG: Allocate 24 x  1 Levels for Diagnostic #   818 TRAC58
(PID.TID 0000.0001) SETDIAG: Allocate 24 x  1 Levels for Diagnostic #   829 TRAC59
(PID.TID 0000.0001) SETDIAG: Allocate 24 x  1 Levels for Diagnostic #   840 TRAC60
(PID.TID 0000.0001) SETDIAG: Allocate 24 x  1 Levels for Diagnostic #   851 TRAC61
(PID.TID 0000.0001) SETDIAG: Allocate 24 x  1 Levels for Diagnostic #   862 TRAC62
(PID.TID 0000.0001) SETDIAG: Allocate 24 x  1 Levels for Diagnostic #   873 TRAC63
(PID.TID 0000.0001) SETDIAG: Allocate 24 x  1 Levels for Diagnostic #   884 TRAC64
(PID.TID 0000.0001) SETDIAG: Allocate 24 x  1 Levels for Diagnostic #   895 TRAC65
(PID.TID 0000.0001) SETDIAG: Allocate 24 x  1 Levels for Diagnostic #   906 TRAC66
(PID.TID 0000.0001) SETDIAG: Allocate 24 x  1 Levels for Diagnostic #   917 TRAC67
(PID.TID 0000.0001) SETDIAG: Allocate 24 x  1 Levels for Diagnostic #   928 TRAC68
(PID.TID 0000.0001) SETDIAG: Allocate 24 x  1 Levels for Diagnostic #   939 TRAC69
(PID.TID 0000.0001) SETDIAG: Allocate 24 x  1 Levels for Diagnostic #   950 TRAC70
(PID.TID 0000.0001) SETDIAG: Allocate 24 x  1 Levels for Diagnostic #   961 TRAC71
(PID.TID 0000.0001) SETDIAG: Allocate 24 x  1 Levels for Diagnostic #   972 TRAC72
(PID.TID 0000.0001) SETDIAG: Allocate 24 x  1 Levels for Diagnostic #   983 TRAC73
(PID.TID 0000.0001) SETDIAG: Allocate 24 x  1 Levels for Diagnostic #   994 TRAC74
(PID.TID 0000.0001) SETDIAG: Allocate 24 x  1 Levels for Diagnostic #  1005 TRAC75
(PID.TID 0000.0001) SETDIAG: Allocate 24 x  1 Levels for Diagnostic #  1016 TRAC76
(PID.TID 0000.0001) SETDIAG: Allocate 24 x  1 Levels for Diagnostic #  1027 TRAC77
(PID.TID 0000.0001) SETDIAG: Allocate 24 x  1 Levels for Diagnostic #  1038 TRAC78
(PID.TID 0000.0001) SETDIAG: Allocate 24 x  1 Levels for Diagnostic #  1049 TRAC79
(PID.TID 0000.0001) SETDIAG: Allocate 24 x  1 Levels for Diagnostic #  1060 TRAC80
(PID.TID 0000.0001) SETDIAG: Allocate 24 x  1 Levels for Diagnostic #  1071 TRAC81
(PID.TID 0000.0001) SETDIAG: Allocate 24 x  1 Levels for Diagnostic #  1082 TRAC82
(PID.TID 0000.0001) SETDIAG: Allocate 24 x  1 Levels for Diagnostic #  1093 TRAC83
(PID.TID 0000.0001) SETDIAG: Allocate 24 x  1 Levels for Diagnostic #  1104 TRAC84
(PID.TID 0000.0001) SETDIAG: Allocate 24 x  1 Levels for Diagnostic #  1115 TRAC85
(PID.TID 0000.0001) SETDIAG: Allocate 24 x  1 Levels for Diagnostic #  1126 TRAC86
(PID.TID 0000.0001) SETDIAG: Allocate 24 x  1 Levels for Diagnostic #  1137 TRAC87
(PID.TID 0000.0001) SETDIAG: Allocate 24 x  1 Levels for Diagnostic #  1148 TRAC88
(PID.TID 0000.0001) SETDIAG: Allocate 24 x  1 Levels for Diagnostic #  1159 TRAC89
(PID.TID 0000.0001) SETDIAG: Allocate 24 x  1 Levels for Diagnostic #  1170 TRAC90
(PID.TID 0000.0001) SETDIAG: Allocate 24 x  1 Levels for Diagnostic #  1181 TRAC91
(PID.TID 0000.0001) SETDIAG: Allocate 24 x  1 Levels for Diagnostic #  1192 TRAC92
(PID.TID 0000.0001) SETDIAG: Allocate 24 x  1 Levels for Diagnostic #  1203 TRAC93
(PID.TID 0000.0001) SETDIAG: Allocate 24 x  1 Levels for Diagnostic #  1214 TRAC94
(PID.TID 0000.0001) SETDIAG: Allocate 24 x  1 Levels for Diagnostic #  1225 TRAC95
(PID.TID 0000.0001) SETDIAG: Allocate 24 x  1 Levels for Diagnostic #  1236 TRAC96
(PID.TID 0000.0001) SETDIAG: Allocate 24 x  1 Levels for Diagnostic #  1247 TRAC97
(PID.TID 0000.0001) SETDIAG: Allocate 24 x  1 Levels for Diagnostic #  1258 TRAC98
(PID.TID 0000.0001) SETDIAG: Allocate 24 x  1 Levels for Diagnostic #  1269 TRAC99
(PID.TID 0000.0001) SETDIAG: Allocate 24 x  1 Levels for Diagnostic #   191 TRAC01
(PID.TID 0000.0001) SETDIAG: Allocate 24 x  1 Levels for Diagnostic #   202 TRAC02
(PID.TID 0000.0001) SETDIAG: Allocate 24 x  1 Levels for Diagnostic #   213 TRAC03
(PID.TID 0000.0001) SETDIAG: Allocate 24 x  1 Levels for Diagnostic #   224 TRAC04
(PID.TID 0000.0001) SETDIAG: Allocate 24 x  1 Levels for Diagnostic #   235 TRAC05
(PID.TID 0000.0001) SETDIAG: Allocate 24 x  1 Levels for Diagnostic #   246 TRAC06
(PID.TID 0000.0001) SETDIAG: Allocate 24 x  1 Levels for Diagnostic #   257 TRAC07
(PID.TID 0000.0001) SETDIAG: Allocate 24 x  1 Levels for Diagnostic #   268 TRAC08
(PID.TID 0000.0001) SETDIAG: Allocate 24 x  1 Levels for Diagnostic #   279 TRAC09
(PID.TID 0000.0001) SETDIAG: Allocate 24 x  1 Levels for Diagnostic #   290 TRAC10
(PID.TID 0000.0001) SETDIAG: Allocate 24 x  1 Levels for Diagnostic #   301 TRAC11
(PID.TID 0000.0001) SETDIAG: Allocate 24 x  1 Levels for Diagnostic #   312 TRAC12
(PID.TID 0000.0001) SETDIAG: Allocate 24 x  1 Levels for Diagnostic #   323 TRAC13
(PID.TID 0000.0001) SETDIAG: Allocate 24 x  1 Levels for Diagnostic #   334 TRAC14
(PID.TID 0000.0001) SETDIAG: Allocate 24 x  1 Levels for Diagnostic #   345 TRAC15
(PID.TID 0000.0001) SETDIAG: Allocate 24 x  1 Levels for Diagnostic #   356 TRAC16
(PID.TID 0000.0001) SETDIAG: Allocate 24 x  1 Levels for Diagnostic #   367 TRAC17
(PID.TID 0000.0001) SETDIAG: Allocate 24 x  1 Levels for Diagnostic #   378 TRAC18
(PID.TID 0000.0001) SETDIAG: Allocate 24 x  1 Levels for Diagnostic #   389 TRAC19
(PID.TID 0000.0001) SETDIAG: Allocate 24 x  1 Levels for Diagnostic #   400 TRAC20
(PID.TID 0000.0001) SETDIAG: Allocate 24 x  1 Levels for Diagnostic #   411 TRAC21
(PID.TID 0000.0001) SETDIAG: Allocate 24 x  1 Levels for Diagnostic #   422 TRAC22
(PID.TID 0000.0001) SETDIAG: Allocate 24 x  1 Levels for Diagnostic #   433 TRAC23
(PID.TID 0000.0001) SETDIAG: Allocate 24 x  1 Levels for Diagnostic #   444 TRAC24
(PID.TID 0000.0001) SETDIAG: Allocate 24 x  1 Levels for Diagnostic #   455 TRAC25
(PID.TID 0000.0001) SETDIAG: Allocate 24 x  1 Levels for Diagnostic #   466 TRAC26
(PID.TID 0000.0001) SETDIAG: Allocate 24 x  1 Levels for Diagnostic #   477 TRAC27
(PID.TID 0000.0001) SETDIAG: Allocate 24 x  1 Levels for Diagnostic #   488 TRAC28
(PID.TID 0000.0001) SETDIAG: Allocate 24 x  1 Levels for Diagnostic #   499 TRAC29
(PID.TID 0000.0001) SETDIAG: Allocate 24 x  1 Levels for Diagnostic #   510 TRAC30
(PID.TID 0000.0001) SETDIAG: Allocate 24 x  1 Levels for Diagnostic #   521 TRAC31
(PID.TID 0000.0001) SETDIAG: Allocate 24 x  1 Levels for Diagnostic #   532 TRAC32
(PID.TID 0000.0001) SETDIAG: Allocate 24 x  1 Levels for Diagnostic #   543 TRAC33
(PID.TID 0000.0001) SETDIAG: Allocate 24 x  1 Levels for Diagnostic #   554 TRAC34
(PID.TID 0000.0001) SETDIAG: Allocate 24 x  1 Levels for Diagnostic #   565 TRAC35
(PID.TID 0000.0001) SETDIAG: Allocate 24 x  1 Levels for Diagnostic #   576 TRAC36
(PID.TID 0000.0001) SETDIAG: Allocate 24 x  1 Levels for Diagnostic #   587 TRAC37
(PID.TID 0000.0001) SETDIAG: Allocate 24 x  1 Levels for Diagnostic #   598 TRAC38
(PID.TID 0000.0001) SETDIAG: Allocate 24 x  1 Levels for Diagnostic #   609 TRAC39
(PID.TID 0000.0001) SETDIAG: Allocate 24 x  1 Levels for Diagnostic #   620 TRAC40
(PID.TID 0000.0001) SETDIAG: Allocate 24 x  1 Levels for Diagnostic #   631 TRAC41
(PID.TID 0000.0001) SETDIAG: Allocate 24 x  1 Levels for Diagnostic #   642 TRAC42
(PID.TID 0000.0001) SETDIAG: Allocate 24 x  1 Levels for Diagnostic #   653 TRAC43
(PID.TID 0000.0001) SETDIAG: Allocate 24 x  1 Levels for Diagnostic #   664 TRAC44
(PID.TID 0000.0001) SETDIAG: Allocate 24 x  1 Levels for Diagnostic #   675 TRAC45
(PID.TID 0000.0001) SETDIAG: Allocate 24 x  1 Levels for Diagnostic #   686 TRAC46
(PID.TID 0000.0001) SETDIAG: Allocate 24 x  1 Levels for Diagnostic #   697 TRAC47
(PID.TID 0000.0001) SETDIAG: Allocate 24 x  1 Levels for Diagnostic #   708 TRAC48
(PID.TID 0000.0001) SETDIAG: Allocate 24 x  1 Levels for Diagnostic #   719 TRAC49
(PID.TID 0000.0001) SETDIAG: Allocate 24 x  1 Levels for Diagnostic #   730 TRAC50
(PID.TID 0000.0001) SETDIAG: Allocate 24 x  1 Levels for Diagnostic #   741 TRAC51
(PID.TID 0000.0001) SETDIAG: Allocate 24 x  1 Levels for Diagnostic #   752 TRAC52
(PID.TID 0000.0001) SETDIAG: Allocate 24 x  1 Levels for Diagnostic #   763 TRAC53
(PID.TID 0000.0001) SETDIAG: Allocate 24 x  1 Levels for Diagnostic #   774 TRAC54
(PID.TID 0000.0001) SETDIAG: Allocate 24 x  1 Levels for Diagnostic #   785 TRAC55
(PID.TID 0000.0001) SETDIAG: Allocate 24 x  1 Levels for Diagnostic #   796 TRAC56
(PID.TID 0000.0001) SETDIAG: Allocate 24 x  1 Levels for Diagnostic #   807 TRAC57
(PID.TID 0000.0001) SETDIAG: Allocate 24 x  1 Levels for Diagnostic #   818 TRAC58
(PID.TID 0000.0001) SETDIAG: Allocate 24 x  1 Levels for Diagnostic #   829 TRAC59
(PID.TID 0000.0001) SETDIAG: Allocate 24 x  1 Levels for Diagnostic #   840 TRAC60
(PID.TID 0000.0001) SETDIAG: Allocate 24 x  1 Levels for Diagnostic #   851 TRAC61
(PID.TID 0000.0001) SETDIAG: Allocate 24 x  1 Levels for Diagnostic #   862 TRAC62
(PID.TID 0000.0001) SETDIAG: Allocate 24 x  1 Levels for Diagnostic #   873 TRAC63
(PID.TID 0000.0001) SETDIAG: Allocate 24 x  1 Levels for Diagnostic #   884 TRAC64
(PID.TID 0000.0001) SETDIAG: Allocate 24 x  1 Levels for Diagnostic #   895 TRAC65
(PID.TID 0000.0001) SETDIAG: Allocate 24 x  1 Levels for Diagnostic #   906 TRAC66
(PID.TID 0000.0001) SETDIAG: Allocate 24 x  1 Levels for Diagnostic #   917 TRAC67
(PID.TID 0000.0001) SETDIAG: Allocate 24 x  1 Levels for Diagnostic #   928 TRAC68
(PID.TID 0000.0001) SETDIAG: Allocate 24 x  1 Levels for Diagnostic #   939 TRAC69
(PID.TID 0000.0001) SETDIAG: Allocate 24 x  1 Levels for Diagnostic #   950 TRAC70
(PID.TID 0000.0001) SETDIAG: Allocate 24 x  1 Levels for Diagnostic #   961 TRAC71
(PID.TID 0000.0001) SETDIAG: Allocate 24 x  1 Levels for Diagnostic #   972 TRAC72
(PID.TID 0000.0001) SETDIAG: Allocate 24 x  1 Levels for Diagnostic #   983 TRAC73
(PID.TID 0000.0001) SETDIAG: Allocate 24 x  1 Levels for Diagnostic #   994 TRAC74
(PID.TID 0000.0001) SETDIAG: Allocate 24 x  1 Levels for Diagnostic #  1005 TRAC75
(PID.TID 0000.0001) SETDIAG: Allocate 24 x  1 Levels for Diagnostic #  1016 TRAC76
(PID.TID 0000.0001) SETDIAG: Allocate 24 x  1 Levels for Diagnostic #  1027 TRAC77
(PID.TID 0000.0001) SETDIAG: Allocate 24 x  1 Levels for Diagnostic #  1038 TRAC78
(PID.TID 0000.0001) SETDIAG: Allocate 24 x  1 Levels for Diagnostic #  1049 TRAC79
(PID.TID 0000.0001) SETDIAG: Allocate 24 x  1 Levels for Diagnostic #  1060 TRAC80
(PID.TID 0000.0001) SETDIAG: Allocate 24 x  1 Levels for Diagnostic #  1071 TRAC81
(PID.TID 0000.0001) SETDIAG: Allocate 24 x  1 Levels for Diagnostic #  1082 TRAC82
(PID.TID 0000.0001) SETDIAG: Allocate 24 x  1 Levels for Diagnostic #  1093 TRAC83
(PID.TID 0000.0001) SETDIAG: Allocate 24 x  1 Levels for Diagnostic #  1104 TRAC84
(PID.TID 0000.0001) SETDIAG: Allocate 24 x  1 Levels for Diagnostic #  1115 TRAC85
(PID.TID 0000.0001) SETDIAG: Allocate 24 x  1 Levels for Diagnostic #  1126 TRAC86
(PID.TID 0000.0001) SETDIAG: Allocate 24 x  1 Levels for Diagnostic #  1137 TRAC87
(PID.TID 0000.0001) SETDIAG: Allocate 24 x  1 Levels for Diagnostic #  1148 TRAC88
(PID.TID 0000.0001) SETDIAG: Allocate 24 x  1 Levels for Diagnostic #  1159 TRAC89
(PID.TID 0000.0001) SETDIAG: Allocate 24 x  1 Levels for Diagnostic #  1170 TRAC90
(PID.TID 0000.0001) SETDIAG: Allocate 24 x  1 Levels for Diagnostic #  1181 TRAC91
(PID.TID 0000.0001) SETDIAG: Allocate 24 x  1 Levels for Diagnostic #  1192 TRAC92
(PID.TID 0000.0001) SETDIAG: Allocate 24 x  1 Levels for Diagnostic #  1203 TRAC93
(PID.TID 0000.0001) SETDIAG: Allocate 24 x  1 Levels for Diagnostic #  1214 TRAC94
(PID.TID 0000.0001) SETDIAG: Allocate 24 x  1 Levels for Diagnostic #  1225 TRAC95
(PID.TID 0000.0001) SETDIAG: Allocate 24 x  1 Levels for Diagnostic #  1236 TRAC96
(PID.TID 0000.0001) SETDIAG: Allocate 24 x  1 Levels for Diagnostic #  1247 TRAC97
(PID.TID 0000.0001) SETDIAG: Allocate 24 x  1 Levels for Diagnostic #  1258 TRAC98
(PID.TID 0000.0001) SETDIAG: Allocate 24 x  1 Levels for Diagnostic #  1269 TRAC99
(PID.TID 0000.0001)   space allocated for all diagnostics:    4952 levels
(PID.TID 0000.0001) DIAGNOSTICS_SET_POINTERS: Set levels for Outp.Stream: THETA_day
(PID.TID 0000.0001)  Levels:       1.   2.   3.   4.   5.   6.   7.   8.   9.  10.  11.  12.  13.  14.  15.  16.  17.  18.  19.  20.
(PID.TID 0000.0001)  Levels:      21.  22.  23.  24.
(PID.TID 0000.0001) DIAGNOSTICS_SET_POINTERS: Set levels for Outp.Stream: SALTanom_day
(PID.TID 0000.0001)  Levels:       1.   2.   3.   4.   5.   6.   7.   8.   9.  10.  11.  12.  13.  14.  15.  16.  17.  18.  19.  20.
(PID.TID 0000.0001)  Levels:      21.  22.  23.  24.
(PID.TID 0000.0001) DIAGNOSTICS_SET_POINTERS: Set levels for Outp.Stream: SIarea_day
(PID.TID 0000.0001)  Levels:       1.
(PID.TID 0000.0001) DIAGNOSTICS_SET_POINTERS: Set levels for Outp.Stream: SIheff_day
(PID.TID 0000.0001)  Levels:       1.
(PID.TID 0000.0001) DIAGNOSTICS_SET_POINTERS: Set levels for Outp.Stream: SIhsnow_day
(PID.TID 0000.0001)  Levels:       1.
(PID.TID 0000.0001) DIAGNOSTICS_SET_POINTERS: Set levels for Outp.Stream: SIqsw_day
(PID.TID 0000.0001)  Levels:       1.
(PID.TID 0000.0001) DIAGNOSTICS_SET_POINTERS: Set levels for Outp.Stream: SIarea
(PID.TID 0000.0001)  Levels:       1.
(PID.TID 0000.0001) DIAGNOSTICS_SET_POINTERS: Set levels for Outp.Stream: SIheff
(PID.TID 0000.0001)  Levels:       1.
(PID.TID 0000.0001) DIAGNOSTICS_SET_POINTERS: Set levels for Outp.Stream: SIhsnow
(PID.TID 0000.0001)  Levels:       1.
(PID.TID 0000.0001) DIAGNOSTICS_SET_POINTERS: Set levels for Outp.Stream: SIqsw
(PID.TID 0000.0001)  Levels:       1.
(PID.TID 0000.0001) DIAGNOSTICS_SET_POINTERS: Set levels for Outp.Stream: PAR_day
(PID.TID 0000.0001)  Levels:       1.   2.   3.   4.   5.   6.   7.   8.   9.  10.  11.  12.  13.  14.  15.  16.  17.  18.  19.  20.
(PID.TID 0000.0001)  Levels:      21.  22.  23.  24.
(PID.TID 0000.0001) DIAGNOSTICS_SET_POINTERS: Set levels for Outp.Stream: PP_day
(PID.TID 0000.0001)  Levels:       1.   2.   3.   4.   5.   6.   7.   8.   9.  10.  11.  12.  13.  14.  15.  16.  17.  18.  19.  20.
(PID.TID 0000.0001)  Levels:      21.  22.  23.  24.
(PID.TID 0000.0001) DIAGNOSTICS_SET_POINTERS: Set levels for Outp.Stream: Nfix_day
(PID.TID 0000.0001)  Levels:       1.   2.   3.   4.   5.   6.   7.   8.   9.  10.  11.  12.  13.  14.  15.  16.  17.  18.  19.  20.
(PID.TID 0000.0001)  Levels:      21.  22.  23.  24.
(PID.TID 0000.0001) DIAGNOSTICS_SET_POINTERS: Set levels for Outp.Stream: PAR
(PID.TID 0000.0001)  Levels:       1.   2.   3.   4.   5.   6.   7.   8.   9.  10.  11.  12.  13.  14.  15.  16.  17.  18.  19.  20.
(PID.TID 0000.0001)  Levels:      21.  22.  23.  24.
(PID.TID 0000.0001) DIAGNOSTICS_SET_POINTERS: Set levels for Outp.Stream: PP
(PID.TID 0000.0001)  Levels:       1.   2.   3.   4.   5.   6.   7.   8.   9.  10.  11.  12.  13.  14.  15.  16.  17.  18.  19.  20.
(PID.TID 0000.0001)  Levels:      21.  22.  23.  24.
(PID.TID 0000.0001) DIAGNOSTICS_SET_POINTERS: Set levels for Outp.Stream: Nfix
(PID.TID 0000.0001)  Levels:       1.   2.   3.   4.   5.   6.   7.   8.   9.  10.  11.  12.  13.  14.  15.  16.  17.  18.  19.  20.
(PID.TID 0000.0001)  Levels:      21.  22.  23.  24.
(PID.TID 0000.0001) DIAGNOSTICS_SET_POINTERS: Set levels for Outp.Stream: PO4_day
(PID.TID 0000.0001)  Levels:       1.   2.   3.   4.   5.   6.   7.   8.   9.  10.  11.  12.  13.  14.  15.  16.  17.  18.  19.  20.
(PID.TID 0000.0001)  Levels:      21.  22.  23.  24.
(PID.TID 0000.0001) DIAGNOSTICS_SET_POINTERS: Set levels for Outp.Stream: NO3_day
(PID.TID 0000.0001)  Levels:       1.   2.   3.   4.   5.   6.   7.   8.   9.  10.  11.  12.  13.  14.  15.  16.  17.  18.  19.  20.
(PID.TID 0000.0001)  Levels:      21.  22.  23.  24.
(PID.TID 0000.0001) DIAGNOSTICS_SET_POINTERS: Set levels for Outp.Stream: FeT_day
(PID.TID 0000.0001)  Levels:       1.   2.   3.   4.   5.   6.   7.   8.   9.  10.  11.  12.  13.  14.  15.  16.  17.  18.  19.  20.
(PID.TID 0000.0001)  Levels:      21.  22.  23.  24.
(PID.TID 0000.0001) DIAGNOSTICS_SET_POINTERS: Set levels for Outp.Stream: SiO2_day
(PID.TID 0000.0001)  Levels:       1.   2.   3.   4.   5.   6.   7.   8.   9.  10.  11.  12.  13.  14.  15.  16.  17.  18.  19.  20.
(PID.TID 0000.0001)  Levels:      21.  22.  23.  24.
(PID.TID 0000.0001) DIAGNOSTICS_SET_POINTERS: Set levels for Outp.Stream: DOP_day
(PID.TID 0000.0001)  Levels:       1.   2.   3.   4.   5.   6.   7.   8.   9.  10.  11.  12.  13.  14.  15.  16.  17.  18.  19.  20.
(PID.TID 0000.0001)  Levels:      21.  22.  23.  24.
(PID.TID 0000.0001) DIAGNOSTICS_SET_POINTERS: Set levels for Outp.Stream: DON_day
(PID.TID 0000.0001)  Levels:       1.   2.   3.   4.   5.   6.   7.   8.   9.  10.  11.  12.  13.  14.  15.  16.  17.  18.  19.  20.
(PID.TID 0000.0001)  Levels:      21.  22.  23.  24.
(PID.TID 0000.0001) DIAGNOSTICS_SET_POINTERS: Set levels for Outp.Stream: DOFe_day
(PID.TID 0000.0001)  Levels:       1.   2.   3.   4.   5.   6.   7.   8.   9.  10.  11.  12.  13.  14.  15.  16.  17.  18.  19.  20.
(PID.TID 0000.0001)  Levels:      21.  22.  23.  24.
(PID.TID 0000.0001) DIAGNOSTICS_SET_POINTERS: Set levels for Outp.Stream: ZOO1P_day
(PID.TID 0000.0001)  Levels:       1.   2.   3.   4.   5.   6.   7.   8.   9.  10.  11.  12.  13.  14.  15.  16.  17.  18.  19.  20.
(PID.TID 0000.0001)  Levels:      21.  22.  23.  24.
(PID.TID 0000.0001) DIAGNOSTICS_SET_POINTERS: Set levels for Outp.Stream: ZOO1N_day
(PID.TID 0000.0001)  Levels:       1.   2.   3.   4.   5.   6.   7.   8.   9.  10.  11.  12.  13.  14.  15.  16.  17.  18.  19.  20.
(PID.TID 0000.0001)  Levels:      21.  22.  23.  24.
(PID.TID 0000.0001) DIAGNOSTICS_SET_POINTERS: Set levels for Outp.Stream: ZOO1Fe_day
(PID.TID 0000.0001)  Levels:       1.   2.   3.   4.   5.   6.   7.   8.   9.  10.  11.  12.  13.  14.  15.  16.  17.  18.  19.  20.
(PID.TID 0000.0001)  Levels:      21.  22.  23.  24.
(PID.TID 0000.0001) DIAGNOSTICS_SET_POINTERS: Set levels for Outp.Stream: ZOO1Si_day
(PID.TID 0000.0001)  Levels:       1.   2.   3.   4.   5.   6.   7.   8.   9.  10.  11.  12.  13.  14.  15.  16.  17.  18.  19.  20.
(PID.TID 0000.0001)  Levels:      21.  22.  23.  24.
(PID.TID 0000.0001) DIAGNOSTICS_SET_POINTERS: Set levels for Outp.Stream: ZOO2P_day
(PID.TID 0000.0001)  Levels:       1.   2.   3.   4.   5.   6.   7.   8.   9.  10.  11.  12.  13.  14.  15.  16.  17.  18.  19.  20.
(PID.TID 0000.0001)  Levels:      21.  22.  23.  24.
(PID.TID 0000.0001) DIAGNOSTICS_SET_POINTERS: Set levels for Outp.Stream: ZOO2N_day
(PID.TID 0000.0001)  Levels:       1.   2.   3.   4.   5.   6.   7.   8.   9.  10.  11.  12.  13.  14.  15.  16.  17.  18.  19.  20.
(PID.TID 0000.0001)  Levels:      21.  22.  23.  24.
(PID.TID 0000.0001) DIAGNOSTICS_SET_POINTERS: Set levels for Outp.Stream: ZOO2Fe_day
(PID.TID 0000.0001)  Levels:       1.   2.   3.   4.   5.   6.   7.   8.   9.  10.  11.  12.  13.  14.  15.  16.  17.  18.  19.  20.
(PID.TID 0000.0001)  Levels:      21.  22.  23.  24.
(PID.TID 0000.0001) DIAGNOSTICS_SET_POINTERS: Set levels for Outp.Stream: ZOO2Si_day
(PID.TID 0000.0001)  Levels:       1.   2.   3.   4.   5.   6.   7.   8.   9.  10.  11.  12.  13.  14.  15.  16.  17.  18.  19.  20.
(PID.TID 0000.0001)  Levels:      21.  22.  23.  24.
(PID.TID 0000.0001) DIAGNOSTICS_SET_POINTERS: Set levels for Outp.Stream: POP_day
(PID.TID 0000.0001)  Levels:       1.   2.   3.   4.   5.   6.   7.   8.   9.  10.  11.  12.  13.  14.  15.  16.  17.  18.  19.  20.
(PID.TID 0000.0001)  Levels:      21.  22.  23.  24.
(PID.TID 0000.0001) DIAGNOSTICS_SET_POINTERS: Set levels for Outp.Stream: PON_day
(PID.TID 0000.0001)  Levels:       1.   2.   3.   4.   5.   6.   7.   8.   9.  10.  11.  12.  13.  14.  15.  16.  17.  18.  19.  20.
(PID.TID 0000.0001)  Levels:      21.  22.  23.  24.
(PID.TID 0000.0001) DIAGNOSTICS_SET_POINTERS: Set levels for Outp.Stream: POFe_day
(PID.TID 0000.0001)  Levels:       1.   2.   3.   4.   5.   6.   7.   8.   9.  10.  11.  12.  13.  14.  15.  16.  17.  18.  19.  20.
(PID.TID 0000.0001)  Levels:      21.  22.  23.  24.
(PID.TID 0000.0001) DIAGNOSTICS_SET_POINTERS: Set levels for Outp.Stream: POSi_day
(PID.TID 0000.0001)  Levels:       1.   2.   3.   4.   5.   6.   7.   8.   9.  10.  11.  12.  13.  14.  15.  16.  17.  18.  19.  20.
(PID.TID 0000.0001)  Levels:      21.  22.  23.  24.
(PID.TID 0000.0001) DIAGNOSTICS_SET_POINTERS: Set levels for Outp.Stream: NH4_day
(PID.TID 0000.0001)  Levels:       1.   2.   3.   4.   5.   6.   7.   8.   9.  10.  11.  12.  13.  14.  15.  16.  17.  18.  19.  20.
(PID.TID 0000.0001)  Levels:      21.  22.  23.  24.
(PID.TID 0000.0001) DIAGNOSTICS_SET_POINTERS: Set levels for Outp.Stream: NO2_day
(PID.TID 0000.0001)  Levels:       1.   2.   3.   4.   5.   6.   7.   8.   9.  10.  11.  12.  13.  14.  15.  16.  17.  18.  19.  20.
(PID.TID 0000.0001)  Levels:      21.  22.  23.  24.
(PID.TID 0000.0001) DIAGNOSTICS_SET_POINTERS: Set levels for Outp.Stream: Phy01_day
(PID.TID 0000.0001)  Levels:       1.   2.   3.   4.   5.   6.   7.   8.   9.  10.  11.  12.  13.  14.  15.  16.  17.  18.  19.  20.
(PID.TID 0000.0001)  Levels:      21.  22.  23.  24.
(PID.TID 0000.0001) DIAGNOSTICS_SET_POINTERS: Set levels for Outp.Stream: Phy02_day
(PID.TID 0000.0001)  Levels:       1.   2.   3.   4.   5.   6.   7.   8.   9.  10.  11.  12.  13.  14.  15.  16.  17.  18.  19.  20.
(PID.TID 0000.0001)  Levels:      21.  22.  23.  24.
(PID.TID 0000.0001) DIAGNOSTICS_SET_POINTERS: Set levels for Outp.Stream: Phy03_day
(PID.TID 0000.0001)  Levels:       1.   2.   3.   4.   5.   6.   7.   8.   9.  10.  11.  12.  13.  14.  15.  16.  17.  18.  19.  20.
(PID.TID 0000.0001)  Levels:      21.  22.  23.  24.
(PID.TID 0000.0001) DIAGNOSTICS_SET_POINTERS: Set levels for Outp.Stream: Phy04_day
(PID.TID 0000.0001)  Levels:       1.   2.   3.   4.   5.   6.   7.   8.   9.  10.  11.  12.  13.  14.  15.  16.  17.  18.  19.  20.
(PID.TID 0000.0001)  Levels:      21.  22.  23.  24.
(PID.TID 0000.0001) DIAGNOSTICS_SET_POINTERS: Set levels for Outp.Stream: Phy05_day
(PID.TID 0000.0001)  Levels:       1.   2.   3.   4.   5.   6.   7.   8.   9.  10.  11.  12.  13.  14.  15.  16.  17.  18.  19.  20.
(PID.TID 0000.0001)  Levels:      21.  22.  23.  24.
(PID.TID 0000.0001) DIAGNOSTICS_SET_POINTERS: Set levels for Outp.Stream: Phy06_day
(PID.TID 0000.0001)  Levels:       1.   2.   3.   4.   5.   6.   7.   8.   9.  10.  11.  12.  13.  14.  15.  16.  17.  18.  19.  20.
(PID.TID 0000.0001)  Levels:      21.  22.  23.  24.
(PID.TID 0000.0001) DIAGNOSTICS_SET_POINTERS: Set levels for Outp.Stream: Phy07_day
(PID.TID 0000.0001)  Levels:       1.   2.   3.   4.   5.   6.   7.   8.   9.  10.  11.  12.  13.  14.  15.  16.  17.  18.  19.  20.
(PID.TID 0000.0001)  Levels:      21.  22.  23.  24.
(PID.TID 0000.0001) DIAGNOSTICS_SET_POINTERS: Set levels for Outp.Stream: Phy08_day
(PID.TID 0000.0001)  Levels:       1.   2.   3.   4.   5.   6.   7.   8.   9.  10.  11.  12.  13.  14.  15.  16.  17.  18.  19.  20.
(PID.TID 0000.0001)  Levels:      21.  22.  23.  24.
(PID.TID 0000.0001) DIAGNOSTICS_SET_POINTERS: Set levels for Outp.Stream: Phy09_day
(PID.TID 0000.0001)  Levels:       1.   2.   3.   4.   5.   6.   7.   8.   9.  10.  11.  12.  13.  14.  15.  16.  17.  18.  19.  20.
(PID.TID 0000.0001)  Levels:      21.  22.  23.  24.
(PID.TID 0000.0001) DIAGNOSTICS_SET_POINTERS: Set levels for Outp.Stream: Phy10_day
(PID.TID 0000.0001)  Levels:       1.   2.   3.   4.   5.   6.   7.   8.   9.  10.  11.  12.  13.  14.  15.  16.  17.  18.  19.  20.
(PID.TID 0000.0001)  Levels:      21.  22.  23.  24.
(PID.TID 0000.0001) DIAGNOSTICS_SET_POINTERS: Set levels for Outp.Stream: Phy11_day
(PID.TID 0000.0001)  Levels:       1.   2.   3.   4.   5.   6.   7.   8.   9.  10.  11.  12.  13.  14.  15.  16.  17.  18.  19.  20.
(PID.TID 0000.0001)  Levels:      21.  22.  23.  24.
(PID.TID 0000.0001) DIAGNOSTICS_SET_POINTERS: Set levels for Outp.Stream: Phy12_day
(PID.TID 0000.0001)  Levels:       1.   2.   3.   4.   5.   6.   7.   8.   9.  10.  11.  12.  13.  14.  15.  16.  17.  18.  19.  20.
(PID.TID 0000.0001)  Levels:      21.  22.  23.  24.
(PID.TID 0000.0001) DIAGNOSTICS_SET_POINTERS: Set levels for Outp.Stream: Phy13_day
(PID.TID 0000.0001)  Levels:       1.   2.   3.   4.   5.   6.   7.   8.   9.  10.  11.  12.  13.  14.  15.  16.  17.  18.  19.  20.
(PID.TID 0000.0001)  Levels:      21.  22.  23.  24.
(PID.TID 0000.0001) DIAGNOSTICS_SET_POINTERS: Set levels for Outp.Stream: Phy14_day
(PID.TID 0000.0001)  Levels:       1.   2.   3.   4.   5.   6.   7.   8.   9.  10.  11.  12.  13.  14.  15.  16.  17.  18.  19.  20.
(PID.TID 0000.0001)  Levels:      21.  22.  23.  24.
(PID.TID 0000.0001) DIAGNOSTICS_SET_POINTERS: Set levels for Outp.Stream: Phy15_day
(PID.TID 0000.0001)  Levels:       1.   2.   3.   4.   5.   6.   7.   8.   9.  10.  11.  12.  13.  14.  15.  16.  17.  18.  19.  20.
(PID.TID 0000.0001)  Levels:      21.  22.  23.  24.
(PID.TID 0000.0001) DIAGNOSTICS_SET_POINTERS: Set levels for Outp.Stream: Phy16_day
(PID.TID 0000.0001)  Levels:       1.   2.   3.   4.   5.   6.   7.   8.   9.  10.  11.  12.  13.  14.  15.  16.  17.  18.  19.  20.
(PID.TID 0000.0001)  Levels:      21.  22.  23.  24.
(PID.TID 0000.0001) DIAGNOSTICS_SET_POINTERS: Set levels for Outp.Stream: Phy17_day
(PID.TID 0000.0001)  Levels:       1.   2.   3.   4.   5.   6.   7.   8.   9.  10.  11.  12.  13.  14.  15.  16.  17.  18.  19.  20.
(PID.TID 0000.0001)  Levels:      21.  22.  23.  24.
(PID.TID 0000.0001) DIAGNOSTICS_SET_POINTERS: Set levels for Outp.Stream: Phy18_day
(PID.TID 0000.0001)  Levels:       1.   2.   3.   4.   5.   6.   7.   8.   9.  10.  11.  12.  13.  14.  15.  16.  17.  18.  19.  20.
(PID.TID 0000.0001)  Levels:      21.  22.  23.  24.
(PID.TID 0000.0001) DIAGNOSTICS_SET_POINTERS: Set levels for Outp.Stream: Phy19_day
(PID.TID 0000.0001)  Levels:       1.   2.   3.   4.   5.   6.   7.   8.   9.  10.  11.  12.  13.  14.  15.  16.  17.  18.  19.  20.
(PID.TID 0000.0001)  Levels:      21.  22.  23.  24.
(PID.TID 0000.0001) DIAGNOSTICS_SET_POINTERS: Set levels for Outp.Stream: Phy20_day
(PID.TID 0000.0001)  Levels:       1.   2.   3.   4.   5.   6.   7.   8.   9.  10.  11.  12.  13.  14.  15.  16.  17.  18.  19.  20.
(PID.TID 0000.0001)  Levels:      21.  22.  23.  24.
(PID.TID 0000.0001) DIAGNOSTICS_SET_POINTERS: Set levels for Outp.Stream: Phy21_day
(PID.TID 0000.0001)  Levels:       1.   2.   3.   4.   5.   6.   7.   8.   9.  10.  11.  12.  13.  14.  15.  16.  17.  18.  19.  20.
(PID.TID 0000.0001)  Levels:      21.  22.  23.  24.
(PID.TID 0000.0001) DIAGNOSTICS_SET_POINTERS: Set levels for Outp.Stream: Phy22_day
(PID.TID 0000.0001)  Levels:       1.   2.   3.   4.   5.   6.   7.   8.   9.  10.  11.  12.  13.  14.  15.  16.  17.  18.  19.  20.
(PID.TID 0000.0001)  Levels:      21.  22.  23.  24.
(PID.TID 0000.0001) DIAGNOSTICS_SET_POINTERS: Set levels for Outp.Stream: Phy23_day
(PID.TID 0000.0001)  Levels:       1.   2.   3.   4.   5.   6.   7.   8.   9.  10.  11.  12.  13.  14.  15.  16.  17.  18.  19.  20.
(PID.TID 0000.0001)  Levels:      21.  22.  23.  24.
(PID.TID 0000.0001) DIAGNOSTICS_SET_POINTERS: Set levels for Outp.Stream: Phy24_day
(PID.TID 0000.0001)  Levels:       1.   2.   3.   4.   5.   6.   7.   8.   9.  10.  11.  12.  13.  14.  15.  16.  17.  18.  19.  20.
(PID.TID 0000.0001)  Levels:      21.  22.  23.  24.
(PID.TID 0000.0001) DIAGNOSTICS_SET_POINTERS: Set levels for Outp.Stream: Phy25_day
(PID.TID 0000.0001)  Levels:       1.   2.   3.   4.   5.   6.   7.   8.   9.  10.  11.  12.  13.  14.  15.  16.  17.  18.  19.  20.
(PID.TID 0000.0001)  Levels:      21.  22.  23.  24.
(PID.TID 0000.0001) DIAGNOSTICS_SET_POINTERS: Set levels for Outp.Stream: Phy26_day
(PID.TID 0000.0001)  Levels:       1.   2.   3.   4.   5.   6.   7.   8.   9.  10.  11.  12.  13.  14.  15.  16.  17.  18.  19.  20.
(PID.TID 0000.0001)  Levels:      21.  22.  23.  24.
(PID.TID 0000.0001) DIAGNOSTICS_SET_POINTERS: Set levels for Outp.Stream: Phy27_day
(PID.TID 0000.0001)  Levels:       1.   2.   3.   4.   5.   6.   7.   8.   9.  10.  11.  12.  13.  14.  15.  16.  17.  18.  19.  20.
(PID.TID 0000.0001)  Levels:      21.  22.  23.  24.
(PID.TID 0000.0001) DIAGNOSTICS_SET_POINTERS: Set levels for Outp.Stream: Phy28_day
(PID.TID 0000.0001)  Levels:       1.   2.   3.   4.   5.   6.   7.   8.   9.  10.  11.  12.  13.  14.  15.  16.  17.  18.  19.  20.
(PID.TID 0000.0001)  Levels:      21.  22.  23.  24.
(PID.TID 0000.0001) DIAGNOSTICS_SET_POINTERS: Set levels for Outp.Stream: Phy29_day
(PID.TID 0000.0001)  Levels:       1.   2.   3.   4.   5.   6.   7.   8.   9.  10.  11.  12.  13.  14.  15.  16.  17.  18.  19.  20.
(PID.TID 0000.0001)  Levels:      21.  22.  23.  24.
(PID.TID 0000.0001) DIAGNOSTICS_SET_POINTERS: Set levels for Outp.Stream: Phy30_day
(PID.TID 0000.0001)  Levels:       1.   2.   3.   4.   5.   6.   7.   8.   9.  10.  11.  12.  13.  14.  15.  16.  17.  18.  19.  20.
(PID.TID 0000.0001)  Levels:      21.  22.  23.  24.
(PID.TID 0000.0001) DIAGNOSTICS_SET_POINTERS: Set levels for Outp.Stream: Phy31_day
(PID.TID 0000.0001)  Levels:       1.   2.   3.   4.   5.   6.   7.   8.   9.  10.  11.  12.  13.  14.  15.  16.  17.  18.  19.  20.
(PID.TID 0000.0001)  Levels:      21.  22.  23.  24.
(PID.TID 0000.0001) DIAGNOSTICS_SET_POINTERS: Set levels for Outp.Stream: Phy32_day
(PID.TID 0000.0001)  Levels:       1.   2.   3.   4.   5.   6.   7.   8.   9.  10.  11.  12.  13.  14.  15.  16.  17.  18.  19.  20.
(PID.TID 0000.0001)  Levels:      21.  22.  23.  24.
(PID.TID 0000.0001) DIAGNOSTICS_SET_POINTERS: Set levels for Outp.Stream: Phy33_day
(PID.TID 0000.0001)  Levels:       1.   2.   3.   4.   5.   6.   7.   8.   9.  10.  11.  12.  13.  14.  15.  16.  17.  18.  19.  20.
(PID.TID 0000.0001)  Levels:      21.  22.  23.  24.
(PID.TID 0000.0001) DIAGNOSTICS_SET_POINTERS: Set levels for Outp.Stream: Phy34_day
(PID.TID 0000.0001)  Levels:       1.   2.   3.   4.   5.   6.   7.   8.   9.  10.  11.  12.  13.  14.  15.  16.  17.  18.  19.  20.
(PID.TID 0000.0001)  Levels:      21.  22.  23.  24.
(PID.TID 0000.0001) DIAGNOSTICS_SET_POINTERS: Set levels for Outp.Stream: Phy35_day
(PID.TID 0000.0001)  Levels:       1.   2.   3.   4.   5.   6.   7.   8.   9.  10.  11.  12.  13.  14.  15.  16.  17.  18.  19.  20.
(PID.TID 0000.0001)  Levels:      21.  22.  23.  24.
(PID.TID 0000.0001) DIAGNOSTICS_SET_POINTERS: Set levels for Outp.Stream: Phy36_day
(PID.TID 0000.0001)  Levels:       1.   2.   3.   4.   5.   6.   7.   8.   9.  10.  11.  12.  13.  14.  15.  16.  17.  18.  19.  20.
(PID.TID 0000.0001)  Levels:      21.  22.  23.  24.
(PID.TID 0000.0001) DIAGNOSTICS_SET_POINTERS: Set levels for Outp.Stream: Phy37_day
(PID.TID 0000.0001)  Levels:       1.   2.   3.   4.   5.   6.   7.   8.   9.  10.  11.  12.  13.  14.  15.  16.  17.  18.  19.  20.
(PID.TID 0000.0001)  Levels:      21.  22.  23.  24.
(PID.TID 0000.0001) DIAGNOSTICS_SET_POINTERS: Set levels for Outp.Stream: Phy38_day
(PID.TID 0000.0001)  Levels:       1.   2.   3.   4.   5.   6.   7.   8.   9.  10.  11.  12.  13.  14.  15.  16.  17.  18.  19.  20.
(PID.TID 0000.0001)  Levels:      21.  22.  23.  24.
(PID.TID 0000.0001) DIAGNOSTICS_SET_POINTERS: Set levels for Outp.Stream: Phy39_day
(PID.TID 0000.0001)  Levels:       1.   2.   3.   4.   5.   6.   7.   8.   9.  10.  11.  12.  13.  14.  15.  16.  17.  18.  19.  20.
(PID.TID 0000.0001)  Levels:      21.  22.  23.  24.
(PID.TID 0000.0001) DIAGNOSTICS_SET_POINTERS: Set levels for Outp.Stream: Phy40_day
(PID.TID 0000.0001)  Levels:       1.   2.   3.   4.   5.   6.   7.   8.   9.  10.  11.  12.  13.  14.  15.  16.  17.  18.  19.  20.
(PID.TID 0000.0001)  Levels:      21.  22.  23.  24.
(PID.TID 0000.0001) DIAGNOSTICS_SET_POINTERS: Set levels for Outp.Stream: Phy41_day
(PID.TID 0000.0001)  Levels:       1.   2.   3.   4.   5.   6.   7.   8.   9.  10.  11.  12.  13.  14.  15.  16.  17.  18.  19.  20.
(PID.TID 0000.0001)  Levels:      21.  22.  23.  24.
(PID.TID 0000.0001) DIAGNOSTICS_SET_POINTERS: Set levels for Outp.Stream: Phy42_day
(PID.TID 0000.0001)  Levels:       1.   2.   3.   4.   5.   6.   7.   8.   9.  10.  11.  12.  13.  14.  15.  16.  17.  18.  19.  20.
(PID.TID 0000.0001)  Levels:      21.  22.  23.  24.
(PID.TID 0000.0001) DIAGNOSTICS_SET_POINTERS: Set levels for Outp.Stream: Phy43_day
(PID.TID 0000.0001)  Levels:       1.   2.   3.   4.   5.   6.   7.   8.   9.  10.  11.  12.  13.  14.  15.  16.  17.  18.  19.  20.
(PID.TID 0000.0001)  Levels:      21.  22.  23.  24.
(PID.TID 0000.0001) DIAGNOSTICS_SET_POINTERS: Set levels for Outp.Stream: Phy44_day
(PID.TID 0000.0001)  Levels:       1.   2.   3.   4.   5.   6.   7.   8.   9.  10.  11.  12.  13.  14.  15.  16.  17.  18.  19.  20.
(PID.TID 0000.0001)  Levels:      21.  22.  23.  24.
(PID.TID 0000.0001) DIAGNOSTICS_SET_POINTERS: Set levels for Outp.Stream: Phy45_day
(PID.TID 0000.0001)  Levels:       1.   2.   3.   4.   5.   6.   7.   8.   9.  10.  11.  12.  13.  14.  15.  16.  17.  18.  19.  20.
(PID.TID 0000.0001)  Levels:      21.  22.  23.  24.
(PID.TID 0000.0001) DIAGNOSTICS_SET_POINTERS: Set levels for Outp.Stream: Phy46_day
(PID.TID 0000.0001)  Levels:       1.   2.   3.   4.   5.   6.   7.   8.   9.  10.  11.  12.  13.  14.  15.  16.  17.  18.  19.  20.
(PID.TID 0000.0001)  Levels:      21.  22.  23.  24.
(PID.TID 0000.0001) DIAGNOSTICS_SET_POINTERS: Set levels for Outp.Stream: Phy47_day
(PID.TID 0000.0001)  Levels:       1.   2.   3.   4.   5.   6.   7.   8.   9.  10.  11.  12.  13.  14.  15.  16.  17.  18.  19.  20.
(PID.TID 0000.0001)  Levels:      21.  22.  23.  24.
(PID.TID 0000.0001) DIAGNOSTICS_SET_POINTERS: Set levels for Outp.Stream: Phy48_day
(PID.TID 0000.0001)  Levels:       1.   2.   3.   4.   5.   6.   7.   8.   9.  10.  11.  12.  13.  14.  15.  16.  17.  18.  19.  20.
(PID.TID 0000.0001)  Levels:      21.  22.  23.  24.
(PID.TID 0000.0001) DIAGNOSTICS_SET_POINTERS: Set levels for Outp.Stream: Phy49_day
(PID.TID 0000.0001)  Levels:       1.   2.   3.   4.   5.   6.   7.   8.   9.  10.  11.  12.  13.  14.  15.  16.  17.  18.  19.  20.
(PID.TID 0000.0001)  Levels:      21.  22.  23.  24.
(PID.TID 0000.0001) DIAGNOSTICS_SET_POINTERS: Set levels for Outp.Stream: Phy50_day
(PID.TID 0000.0001)  Levels:       1.   2.   3.   4.   5.   6.   7.   8.   9.  10.  11.  12.  13.  14.  15.  16.  17.  18.  19.  20.
(PID.TID 0000.0001)  Levels:      21.  22.  23.  24.
(PID.TID 0000.0001) DIAGNOSTICS_SET_POINTERS: Set levels for Outp.Stream: Phy51_day
(PID.TID 0000.0001)  Levels:       1.   2.   3.   4.   5.   6.   7.   8.   9.  10.  11.  12.  13.  14.  15.  16.  17.  18.  19.  20.
(PID.TID 0000.0001)  Levels:      21.  22.  23.  24.
(PID.TID 0000.0001) DIAGNOSTICS_SET_POINTERS: Set levels for Outp.Stream: Phy52_day
(PID.TID 0000.0001)  Levels:       1.   2.   3.   4.   5.   6.   7.   8.   9.  10.  11.  12.  13.  14.  15.  16.  17.  18.  19.  20.
(PID.TID 0000.0001)  Levels:      21.  22.  23.  24.
(PID.TID 0000.0001) DIAGNOSTICS_SET_POINTERS: Set levels for Outp.Stream: Phy53_day
(PID.TID 0000.0001)  Levels:       1.   2.   3.   4.   5.   6.   7.   8.   9.  10.  11.  12.  13.  14.  15.  16.  17.  18.  19.  20.
(PID.TID 0000.0001)  Levels:      21.  22.  23.  24.
(PID.TID 0000.0001) DIAGNOSTICS_SET_POINTERS: Set levels for Outp.Stream: Phy54_day
(PID.TID 0000.0001)  Levels:       1.   2.   3.   4.   5.   6.   7.   8.   9.  10.  11.  12.  13.  14.  15.  16.  17.  18.  19.  20.
(PID.TID 0000.0001)  Levels:      21.  22.  23.  24.
(PID.TID 0000.0001) DIAGNOSTICS_SET_POINTERS: Set levels for Outp.Stream: Phy55_day
(PID.TID 0000.0001)  Levels:       1.   2.   3.   4.   5.   6.   7.   8.   9.  10.  11.  12.  13.  14.  15.  16.  17.  18.  19.  20.
(PID.TID 0000.0001)  Levels:      21.  22.  23.  24.
(PID.TID 0000.0001) DIAGNOSTICS_SET_POINTERS: Set levels for Outp.Stream: Phy56_day
(PID.TID 0000.0001)  Levels:       1.   2.   3.   4.   5.   6.   7.   8.   9.  10.  11.  12.  13.  14.  15.  16.  17.  18.  19.  20.
(PID.TID 0000.0001)  Levels:      21.  22.  23.  24.
(PID.TID 0000.0001) DIAGNOSTICS_SET_POINTERS: Set levels for Outp.Stream: Phy57_day
(PID.TID 0000.0001)  Levels:       1.   2.   3.   4.   5.   6.   7.   8.   9.  10.  11.  12.  13.  14.  15.  16.  17.  18.  19.  20.
(PID.TID 0000.0001)  Levels:      21.  22.  23.  24.
(PID.TID 0000.0001) DIAGNOSTICS_SET_POINTERS: Set levels for Outp.Stream: Phy58_day
(PID.TID 0000.0001)  Levels:       1.   2.   3.   4.   5.   6.   7.   8.   9.  10.  11.  12.  13.  14.  15.  16.  17.  18.  19.  20.
(PID.TID 0000.0001)  Levels:      21.  22.  23.  24.
(PID.TID 0000.0001) DIAGNOSTICS_SET_POINTERS: Set levels for Outp.Stream: Phy59_day
(PID.TID 0000.0001)  Levels:       1.   2.   3.   4.   5.   6.   7.   8.   9.  10.  11.  12.  13.  14.  15.  16.  17.  18.  19.  20.
(PID.TID 0000.0001)  Levels:      21.  22.  23.  24.
(PID.TID 0000.0001) DIAGNOSTICS_SET_POINTERS: Set levels for Outp.Stream: Phy60_day
(PID.TID 0000.0001)  Levels:       1.   2.   3.   4.   5.   6.   7.   8.   9.  10.  11.  12.  13.  14.  15.  16.  17.  18.  19.  20.
(PID.TID 0000.0001)  Levels:      21.  22.  23.  24.
(PID.TID 0000.0001) DIAGNOSTICS_SET_POINTERS: Set levels for Outp.Stream: Phy61_day
(PID.TID 0000.0001)  Levels:       1.   2.   3.   4.   5.   6.   7.   8.   9.  10.  11.  12.  13.  14.  15.  16.  17.  18.  19.  20.
(PID.TID 0000.0001)  Levels:      21.  22.  23.  24.
(PID.TID 0000.0001) DIAGNOSTICS_SET_POINTERS: Set levels for Outp.Stream: Phy62_day
(PID.TID 0000.0001)  Levels:       1.   2.   3.   4.   5.   6.   7.   8.   9.  10.  11.  12.  13.  14.  15.  16.  17.  18.  19.  20.
(PID.TID 0000.0001)  Levels:      21.  22.  23.  24.
(PID.TID 0000.0001) DIAGNOSTICS_SET_POINTERS: Set levels for Outp.Stream: Phy63_day
(PID.TID 0000.0001)  Levels:       1.   2.   3.   4.   5.   6.   7.   8.   9.  10.  11.  12.  13.  14.  15.  16.  17.  18.  19.  20.
(PID.TID 0000.0001)  Levels:      21.  22.  23.  24.
(PID.TID 0000.0001) DIAGNOSTICS_SET_POINTERS: Set levels for Outp.Stream: Phy64_day
(PID.TID 0000.0001)  Levels:       1.   2.   3.   4.   5.   6.   7.   8.   9.  10.  11.  12.  13.  14.  15.  16.  17.  18.  19.  20.
(PID.TID 0000.0001)  Levels:      21.  22.  23.  24.
(PID.TID 0000.0001) DIAGNOSTICS_SET_POINTERS: Set levels for Outp.Stream: Phy65_day
(PID.TID 0000.0001)  Levels:       1.   2.   3.   4.   5.   6.   7.   8.   9.  10.  11.  12.  13.  14.  15.  16.  17.  18.  19.  20.
(PID.TID 0000.0001)  Levels:      21.  22.  23.  24.
(PID.TID 0000.0001) DIAGNOSTICS_SET_POINTERS: Set levels for Outp.Stream: Phy66_day
(PID.TID 0000.0001)  Levels:       1.   2.   3.   4.   5.   6.   7.   8.   9.  10.  11.  12.  13.  14.  15.  16.  17.  18.  19.  20.
(PID.TID 0000.0001)  Levels:      21.  22.  23.  24.
(PID.TID 0000.0001) DIAGNOSTICS_SET_POINTERS: Set levels for Outp.Stream: Phy67_day
(PID.TID 0000.0001)  Levels:       1.   2.   3.   4.   5.   6.   7.   8.   9.  10.  11.  12.  13.  14.  15.  16.  17.  18.  19.  20.
(PID.TID 0000.0001)  Levels:      21.  22.  23.  24.
(PID.TID 0000.0001) DIAGNOSTICS_SET_POINTERS: Set levels for Outp.Stream: Phy68_day
(PID.TID 0000.0001)  Levels:       1.   2.   3.   4.   5.   6.   7.   8.   9.  10.  11.  12.  13.  14.  15.  16.  17.  18.  19.  20.
(PID.TID 0000.0001)  Levels:      21.  22.  23.  24.
(PID.TID 0000.0001) DIAGNOSTICS_SET_POINTERS: Set levels for Outp.Stream: Phy69_day
(PID.TID 0000.0001)  Levels:       1.   2.   3.   4.   5.   6.   7.   8.   9.  10.  11.  12.  13.  14.  15.  16.  17.  18.  19.  20.
(PID.TID 0000.0001)  Levels:      21.  22.  23.  24.
(PID.TID 0000.0001) DIAGNOSTICS_SET_POINTERS: Set levels for Outp.Stream: Phy70_day
(PID.TID 0000.0001)  Levels:       1.   2.   3.   4.   5.   6.   7.   8.   9.  10.  11.  12.  13.  14.  15.  16.  17.  18.  19.  20.
(PID.TID 0000.0001)  Levels:      21.  22.  23.  24.
(PID.TID 0000.0001) DIAGNOSTICS_SET_POINTERS: Set levels for Outp.Stream: Phy71_day
(PID.TID 0000.0001)  Levels:       1.   2.   3.   4.   5.   6.   7.   8.   9.  10.  11.  12.  13.  14.  15.  16.  17.  18.  19.  20.
(PID.TID 0000.0001)  Levels:      21.  22.  23.  24.
(PID.TID 0000.0001) DIAGNOSTICS_SET_POINTERS: Set levels for Outp.Stream: Phy72_day
(PID.TID 0000.0001)  Levels:       1.   2.   3.   4.   5.   6.   7.   8.   9.  10.  11.  12.  13.  14.  15.  16.  17.  18.  19.  20.
(PID.TID 0000.0001)  Levels:      21.  22.  23.  24.
(PID.TID 0000.0001) DIAGNOSTICS_SET_POINTERS: Set levels for Outp.Stream: Phy73_day
(PID.TID 0000.0001)  Levels:       1.   2.   3.   4.   5.   6.   7.   8.   9.  10.  11.  12.  13.  14.  15.  16.  17.  18.  19.  20.
(PID.TID 0000.0001)  Levels:      21.  22.  23.  24.
(PID.TID 0000.0001) DIAGNOSTICS_SET_POINTERS: Set levels for Outp.Stream: Phy74_day
(PID.TID 0000.0001)  Levels:       1.   2.   3.   4.   5.   6.   7.   8.   9.  10.  11.  12.  13.  14.  15.  16.  17.  18.  19.  20.
(PID.TID 0000.0001)  Levels:      21.  22.  23.  24.
(PID.TID 0000.0001) DIAGNOSTICS_SET_POINTERS: Set levels for Outp.Stream: Phy75_day
(PID.TID 0000.0001)  Levels:       1.   2.   3.   4.   5.   6.   7.   8.   9.  10.  11.  12.  13.  14.  15.  16.  17.  18.  19.  20.
(PID.TID 0000.0001)  Levels:      21.  22.  23.  24.
(PID.TID 0000.0001) DIAGNOSTICS_SET_POINTERS: Set levels for Outp.Stream: Phy76_day
(PID.TID 0000.0001)  Levels:       1.   2.   3.   4.   5.   6.   7.   8.   9.  10.  11.  12.  13.  14.  15.  16.  17.  18.  19.  20.
(PID.TID 0000.0001)  Levels:      21.  22.  23.  24.
(PID.TID 0000.0001) DIAGNOSTICS_SET_POINTERS: Set levels for Outp.Stream: Phy77_day
(PID.TID 0000.0001)  Levels:       1.   2.   3.   4.   5.   6.   7.   8.   9.  10.  11.  12.  13.  14.  15.  16.  17.  18.  19.  20.
(PID.TID 0000.0001)  Levels:      21.  22.  23.  24.
(PID.TID 0000.0001) DIAGNOSTICS_SET_POINTERS: Set levels for Outp.Stream: Phy78_day
(PID.TID 0000.0001)  Levels:       1.   2.   3.   4.   5.   6.   7.   8.   9.  10.  11.  12.  13.  14.  15.  16.  17.  18.  19.  20.
(PID.TID 0000.0001)  Levels:      21.  22.  23.  24.
(PID.TID 0000.0001) DIAGNOSTICS_SET_POINTERS: Set levels for Outp.Stream: PO4
(PID.TID 0000.0001)  Levels:       1.   2.   3.   4.   5.   6.   7.   8.   9.  10.  11.  12.  13.  14.  15.  16.  17.  18.  19.  20.
(PID.TID 0000.0001)  Levels:      21.  22.  23.  24.
(PID.TID 0000.0001) DIAGNOSTICS_SET_POINTERS: Set levels for Outp.Stream: NO3
(PID.TID 0000.0001)  Levels:       1.   2.   3.   4.   5.   6.   7.   8.   9.  10.  11.  12.  13.  14.  15.  16.  17.  18.  19.  20.
(PID.TID 0000.0001)  Levels:      21.  22.  23.  24.
(PID.TID 0000.0001) DIAGNOSTICS_SET_POINTERS: Set levels for Outp.Stream: FeT
(PID.TID 0000.0001)  Levels:       1.   2.   3.   4.   5.   6.   7.   8.   9.  10.  11.  12.  13.  14.  15.  16.  17.  18.  19.  20.
(PID.TID 0000.0001)  Levels:      21.  22.  23.  24.
(PID.TID 0000.0001) DIAGNOSTICS_SET_POINTERS: Set levels for Outp.Stream: SiO2
(PID.TID 0000.0001)  Levels:       1.   2.   3.   4.   5.   6.   7.   8.   9.  10.  11.  12.  13.  14.  15.  16.  17.  18.  19.  20.
(PID.TID 0000.0001)  Levels:      21.  22.  23.  24.
(PID.TID 0000.0001) DIAGNOSTICS_SET_POINTERS: Set levels for Outp.Stream: DOP
(PID.TID 0000.0001)  Levels:       1.   2.   3.   4.   5.   6.   7.   8.   9.  10.  11.  12.  13.  14.  15.  16.  17.  18.  19.  20.
(PID.TID 0000.0001)  Levels:      21.  22.  23.  24.
(PID.TID 0000.0001) DIAGNOSTICS_SET_POINTERS: Set levels for Outp.Stream: DON
(PID.TID 0000.0001)  Levels:       1.   2.   3.   4.   5.   6.   7.   8.   9.  10.  11.  12.  13.  14.  15.  16.  17.  18.  19.  20.
(PID.TID 0000.0001)  Levels:      21.  22.  23.  24.
(PID.TID 0000.0001) DIAGNOSTICS_SET_POINTERS: Set levels for Outp.Stream: DOFe
(PID.TID 0000.0001)  Levels:       1.   2.   3.   4.   5.   6.   7.   8.   9.  10.  11.  12.  13.  14.  15.  16.  17.  18.  19.  20.
(PID.TID 0000.0001)  Levels:      21.  22.  23.  24.
(PID.TID 0000.0001) DIAGNOSTICS_SET_POINTERS: Set levels for Outp.Stream: ZOO1P
(PID.TID 0000.0001)  Levels:       1.   2.   3.   4.   5.   6.   7.   8.   9.  10.  11.  12.  13.  14.  15.  16.  17.  18.  19.  20.
(PID.TID 0000.0001)  Levels:      21.  22.  23.  24.
(PID.TID 0000.0001) DIAGNOSTICS_SET_POINTERS: Set levels for Outp.Stream: ZOO1N
(PID.TID 0000.0001)  Levels:       1.   2.   3.   4.   5.   6.   7.   8.   9.  10.  11.  12.  13.  14.  15.  16.  17.  18.  19.  20.
(PID.TID 0000.0001)  Levels:      21.  22.  23.  24.
(PID.TID 0000.0001) DIAGNOSTICS_SET_POINTERS: Set levels for Outp.Stream: ZOO1Fe
(PID.TID 0000.0001)  Levels:       1.   2.   3.   4.   5.   6.   7.   8.   9.  10.  11.  12.  13.  14.  15.  16.  17.  18.  19.  20.
(PID.TID 0000.0001)  Levels:      21.  22.  23.  24.
(PID.TID 0000.0001) DIAGNOSTICS_SET_POINTERS: Set levels for Outp.Stream: ZOO1Si
(PID.TID 0000.0001)  Levels:       1.   2.   3.   4.   5.   6.   7.   8.   9.  10.  11.  12.  13.  14.  15.  16.  17.  18.  19.  20.
(PID.TID 0000.0001)  Levels:      21.  22.  23.  24.
(PID.TID 0000.0001) DIAGNOSTICS_SET_POINTERS: Set levels for Outp.Stream: ZOO2P
(PID.TID 0000.0001)  Levels:       1.   2.   3.   4.   5.   6.   7.   8.   9.  10.  11.  12.  13.  14.  15.  16.  17.  18.  19.  20.
(PID.TID 0000.0001)  Levels:      21.  22.  23.  24.
(PID.TID 0000.0001) DIAGNOSTICS_SET_POINTERS: Set levels for Outp.Stream: ZOO2N
(PID.TID 0000.0001)  Levels:       1.   2.   3.   4.   5.   6.   7.   8.   9.  10.  11.  12.  13.  14.  15.  16.  17.  18.  19.  20.
(PID.TID 0000.0001)  Levels:      21.  22.  23.  24.
(PID.TID 0000.0001) DIAGNOSTICS_SET_POINTERS: Set levels for Outp.Stream: ZOO2Fe
(PID.TID 0000.0001)  Levels:       1.   2.   3.   4.   5.   6.   7.   8.   9.  10.  11.  12.  13.  14.  15.  16.  17.  18.  19.  20.
(PID.TID 0000.0001)  Levels:      21.  22.  23.  24.
(PID.TID 0000.0001) DIAGNOSTICS_SET_POINTERS: Set levels for Outp.Stream: ZOO2Si
(PID.TID 0000.0001)  Levels:       1.   2.   3.   4.   5.   6.   7.   8.   9.  10.  11.  12.  13.  14.  15.  16.  17.  18.  19.  20.
(PID.TID 0000.0001)  Levels:      21.  22.  23.  24.
(PID.TID 0000.0001) DIAGNOSTICS_SET_POINTERS: Set levels for Outp.Stream: POP
(PID.TID 0000.0001)  Levels:       1.   2.   3.   4.   5.   6.   7.   8.   9.  10.  11.  12.  13.  14.  15.  16.  17.  18.  19.  20.
(PID.TID 0000.0001)  Levels:      21.  22.  23.  24.
(PID.TID 0000.0001) DIAGNOSTICS_SET_POINTERS: Set levels for Outp.Stream: PON
(PID.TID 0000.0001)  Levels:       1.   2.   3.   4.   5.   6.   7.   8.   9.  10.  11.  12.  13.  14.  15.  16.  17.  18.  19.  20.
(PID.TID 0000.0001)  Levels:      21.  22.  23.  24.
(PID.TID 0000.0001) DIAGNOSTICS_SET_POINTERS: Set levels for Outp.Stream: POFe
(PID.TID 0000.0001)  Levels:       1.   2.   3.   4.   5.   6.   7.   8.   9.  10.  11.  12.  13.  14.  15.  16.  17.  18.  19.  20.
(PID.TID 0000.0001)  Levels:      21.  22.  23.  24.
(PID.TID 0000.0001) DIAGNOSTICS_SET_POINTERS: Set levels for Outp.Stream: POSi
(PID.TID 0000.0001)  Levels:       1.   2.   3.   4.   5.   6.   7.   8.   9.  10.  11.  12.  13.  14.  15.  16.  17.  18.  19.  20.
(PID.TID 0000.0001)  Levels:      21.  22.  23.  24.
(PID.TID 0000.0001) DIAGNOSTICS_SET_POINTERS: Set levels for Outp.Stream: NH4
(PID.TID 0000.0001)  Levels:       1.   2.   3.   4.   5.   6.   7.   8.   9.  10.  11.  12.  13.  14.  15.  16.  17.  18.  19.  20.
(PID.TID 0000.0001)  Levels:      21.  22.  23.  24.
(PID.TID 0000.0001) DIAGNOSTICS_SET_POINTERS: Set levels for Outp.Stream: NO2
(PID.TID 0000.0001)  Levels:       1.   2.   3.   4.   5.   6.   7.   8.   9.  10.  11.  12.  13.  14.  15.  16.  17.  18.  19.  20.
(PID.TID 0000.0001)  Levels:      21.  22.  23.  24.
(PID.TID 0000.0001) DIAGNOSTICS_SET_POINTERS: Set levels for Outp.Stream: Phy01
(PID.TID 0000.0001)  Levels:       1.   2.   3.   4.   5.   6.   7.   8.   9.  10.  11.  12.  13.  14.  15.  16.  17.  18.  19.  20.
(PID.TID 0000.0001)  Levels:      21.  22.  23.  24.
(PID.TID 0000.0001) DIAGNOSTICS_SET_POINTERS: Set levels for Outp.Stream: Phy02
(PID.TID 0000.0001)  Levels:       1.   2.   3.   4.   5.   6.   7.   8.   9.  10.  11.  12.  13.  14.  15.  16.  17.  18.  19.  20.
(PID.TID 0000.0001)  Levels:      21.  22.  23.  24.
(PID.TID 0000.0001) DIAGNOSTICS_SET_POINTERS: Set levels for Outp.Stream: Phy03
(PID.TID 0000.0001)  Levels:       1.   2.   3.   4.   5.   6.   7.   8.   9.  10.  11.  12.  13.  14.  15.  16.  17.  18.  19.  20.
(PID.TID 0000.0001)  Levels:      21.  22.  23.  24.
(PID.TID 0000.0001) DIAGNOSTICS_SET_POINTERS: Set levels for Outp.Stream: Phy04
(PID.TID 0000.0001)  Levels:       1.   2.   3.   4.   5.   6.   7.   8.   9.  10.  11.  12.  13.  14.  15.  16.  17.  18.  19.  20.
(PID.TID 0000.0001)  Levels:      21.  22.  23.  24.
(PID.TID 0000.0001) DIAGNOSTICS_SET_POINTERS: Set levels for Outp.Stream: Phy05
(PID.TID 0000.0001)  Levels:       1.   2.   3.   4.   5.   6.   7.   8.   9.  10.  11.  12.  13.  14.  15.  16.  17.  18.  19.  20.
(PID.TID 0000.0001)  Levels:      21.  22.  23.  24.
(PID.TID 0000.0001) DIAGNOSTICS_SET_POINTERS: Set levels for Outp.Stream: Phy06
(PID.TID 0000.0001)  Levels:       1.   2.   3.   4.   5.   6.   7.   8.   9.  10.  11.  12.  13.  14.  15.  16.  17.  18.  19.  20.
(PID.TID 0000.0001)  Levels:      21.  22.  23.  24.
(PID.TID 0000.0001) DIAGNOSTICS_SET_POINTERS: Set levels for Outp.Stream: Phy07
(PID.TID 0000.0001)  Levels:       1.   2.   3.   4.   5.   6.   7.   8.   9.  10.  11.  12.  13.  14.  15.  16.  17.  18.  19.  20.
(PID.TID 0000.0001)  Levels:      21.  22.  23.  24.
(PID.TID 0000.0001) DIAGNOSTICS_SET_POINTERS: Set levels for Outp.Stream: Phy08
(PID.TID 0000.0001)  Levels:       1.   2.   3.   4.   5.   6.   7.   8.   9.  10.  11.  12.  13.  14.  15.  16.  17.  18.  19.  20.
(PID.TID 0000.0001)  Levels:      21.  22.  23.  24.
(PID.TID 0000.0001) DIAGNOSTICS_SET_POINTERS: Set levels for Outp.Stream: Phy09
(PID.TID 0000.0001)  Levels:       1.   2.   3.   4.   5.   6.   7.   8.   9.  10.  11.  12.  13.  14.  15.  16.  17.  18.  19.  20.
(PID.TID 0000.0001)  Levels:      21.  22.  23.  24.
(PID.TID 0000.0001) DIAGNOSTICS_SET_POINTERS: Set levels for Outp.Stream: Phy10
(PID.TID 0000.0001)  Levels:       1.   2.   3.   4.   5.   6.   7.   8.   9.  10.  11.  12.  13.  14.  15.  16.  17.  18.  19.  20.
(PID.TID 0000.0001)  Levels:      21.  22.  23.  24.
(PID.TID 0000.0001) DIAGNOSTICS_SET_POINTERS: Set levels for Outp.Stream: Phy11
(PID.TID 0000.0001)  Levels:       1.   2.   3.   4.   5.   6.   7.   8.   9.  10.  11.  12.  13.  14.  15.  16.  17.  18.  19.  20.
(PID.TID 0000.0001)  Levels:      21.  22.  23.  24.
(PID.TID 0000.0001) DIAGNOSTICS_SET_POINTERS: Set levels for Outp.Stream: Phy12
(PID.TID 0000.0001)  Levels:       1.   2.   3.   4.   5.   6.   7.   8.   9.  10.  11.  12.  13.  14.  15.  16.  17.  18.  19.  20.
(PID.TID 0000.0001)  Levels:      21.  22.  23.  24.
(PID.TID 0000.0001) DIAGNOSTICS_SET_POINTERS: Set levels for Outp.Stream: Phy13
(PID.TID 0000.0001)  Levels:       1.   2.   3.   4.   5.   6.   7.   8.   9.  10.  11.  12.  13.  14.  15.  16.  17.  18.  19.  20.
(PID.TID 0000.0001)  Levels:      21.  22.  23.  24.
(PID.TID 0000.0001) DIAGNOSTICS_SET_POINTERS: Set levels for Outp.Stream: Phy14
(PID.TID 0000.0001)  Levels:       1.   2.   3.   4.   5.   6.   7.   8.   9.  10.  11.  12.  13.  14.  15.  16.  17.  18.  19.  20.
(PID.TID 0000.0001)  Levels:      21.  22.  23.  24.
(PID.TID 0000.0001) DIAGNOSTICS_SET_POINTERS: Set levels for Outp.Stream: Phy15
(PID.TID 0000.0001)  Levels:       1.   2.   3.   4.   5.   6.   7.   8.   9.  10.  11.  12.  13.  14.  15.  16.  17.  18.  19.  20.
(PID.TID 0000.0001)  Levels:      21.  22.  23.  24.
(PID.TID 0000.0001) DIAGNOSTICS_SET_POINTERS: Set levels for Outp.Stream: Phy16
(PID.TID 0000.0001)  Levels:       1.   2.   3.   4.   5.   6.   7.   8.   9.  10.  11.  12.  13.  14.  15.  16.  17.  18.  19.  20.
(PID.TID 0000.0001)  Levels:      21.  22.  23.  24.
(PID.TID 0000.0001) DIAGNOSTICS_SET_POINTERS: Set levels for Outp.Stream: Phy17
(PID.TID 0000.0001)  Levels:       1.   2.   3.   4.   5.   6.   7.   8.   9.  10.  11.  12.  13.  14.  15.  16.  17.  18.  19.  20.
(PID.TID 0000.0001)  Levels:      21.  22.  23.  24.
(PID.TID 0000.0001) DIAGNOSTICS_SET_POINTERS: Set levels for Outp.Stream: Phy18
(PID.TID 0000.0001)  Levels:       1.   2.   3.   4.   5.   6.   7.   8.   9.  10.  11.  12.  13.  14.  15.  16.  17.  18.  19.  20.
(PID.TID 0000.0001)  Levels:      21.  22.  23.  24.
(PID.TID 0000.0001) DIAGNOSTICS_SET_POINTERS: Set levels for Outp.Stream: Phy19
(PID.TID 0000.0001)  Levels:       1.   2.   3.   4.   5.   6.   7.   8.   9.  10.  11.  12.  13.  14.  15.  16.  17.  18.  19.  20.
(PID.TID 0000.0001)  Levels:      21.  22.  23.  24.
(PID.TID 0000.0001) DIAGNOSTICS_SET_POINTERS: Set levels for Outp.Stream: Phy20
(PID.TID 0000.0001)  Levels:       1.   2.   3.   4.   5.   6.   7.   8.   9.  10.  11.  12.  13.  14.  15.  16.  17.  18.  19.  20.
(PID.TID 0000.0001)  Levels:      21.  22.  23.  24.
(PID.TID 0000.0001) DIAGNOSTICS_SET_POINTERS: Set levels for Outp.Stream: Phy21
(PID.TID 0000.0001)  Levels:       1.   2.   3.   4.   5.   6.   7.   8.   9.  10.  11.  12.  13.  14.  15.  16.  17.  18.  19.  20.
(PID.TID 0000.0001)  Levels:      21.  22.  23.  24.
(PID.TID 0000.0001) DIAGNOSTICS_SET_POINTERS: Set levels for Outp.Stream: Phy22
(PID.TID 0000.0001)  Levels:       1.   2.   3.   4.   5.   6.   7.   8.   9.  10.  11.  12.  13.  14.  15.  16.  17.  18.  19.  20.
(PID.TID 0000.0001)  Levels:      21.  22.  23.  24.
(PID.TID 0000.0001) DIAGNOSTICS_SET_POINTERS: Set levels for Outp.Stream: Phy23
(PID.TID 0000.0001)  Levels:       1.   2.   3.   4.   5.   6.   7.   8.   9.  10.  11.  12.  13.  14.  15.  16.  17.  18.  19.  20.
(PID.TID 0000.0001)  Levels:      21.  22.  23.  24.
(PID.TID 0000.0001) DIAGNOSTICS_SET_POINTERS: Set levels for Outp.Stream: Phy24
(PID.TID 0000.0001)  Levels:       1.   2.   3.   4.   5.   6.   7.   8.   9.  10.  11.  12.  13.  14.  15.  16.  17.  18.  19.  20.
(PID.TID 0000.0001)  Levels:      21.  22.  23.  24.
(PID.TID 0000.0001) DIAGNOSTICS_SET_POINTERS: Set levels for Outp.Stream: Phy25
(PID.TID 0000.0001)  Levels:       1.   2.   3.   4.   5.   6.   7.   8.   9.  10.  11.  12.  13.  14.  15.  16.  17.  18.  19.  20.
(PID.TID 0000.0001)  Levels:      21.  22.  23.  24.
(PID.TID 0000.0001) DIAGNOSTICS_SET_POINTERS: Set levels for Outp.Stream: Phy26
(PID.TID 0000.0001)  Levels:       1.   2.   3.   4.   5.   6.   7.   8.   9.  10.  11.  12.  13.  14.  15.  16.  17.  18.  19.  20.
(PID.TID 0000.0001)  Levels:      21.  22.  23.  24.
(PID.TID 0000.0001) DIAGNOSTICS_SET_POINTERS: Set levels for Outp.Stream: Phy27
(PID.TID 0000.0001)  Levels:       1.   2.   3.   4.   5.   6.   7.   8.   9.  10.  11.  12.  13.  14.  15.  16.  17.  18.  19.  20.
(PID.TID 0000.0001)  Levels:      21.  22.  23.  24.
(PID.TID 0000.0001) DIAGNOSTICS_SET_POINTERS: Set levels for Outp.Stream: Phy28
(PID.TID 0000.0001)  Levels:       1.   2.   3.   4.   5.   6.   7.   8.   9.  10.  11.  12.  13.  14.  15.  16.  17.  18.  19.  20.
(PID.TID 0000.0001)  Levels:      21.  22.  23.  24.
(PID.TID 0000.0001) DIAGNOSTICS_SET_POINTERS: Set levels for Outp.Stream: Phy29
(PID.TID 0000.0001)  Levels:       1.   2.   3.   4.   5.   6.   7.   8.   9.  10.  11.  12.  13.  14.  15.  16.  17.  18.  19.  20.
(PID.TID 0000.0001)  Levels:      21.  22.  23.  24.
(PID.TID 0000.0001) DIAGNOSTICS_SET_POINTERS: Set levels for Outp.Stream: Phy30
(PID.TID 0000.0001)  Levels:       1.   2.   3.   4.   5.   6.   7.   8.   9.  10.  11.  12.  13.  14.  15.  16.  17.  18.  19.  20.
(PID.TID 0000.0001)  Levels:      21.  22.  23.  24.
(PID.TID 0000.0001) DIAGNOSTICS_SET_POINTERS: Set levels for Outp.Stream: Phy31
(PID.TID 0000.0001)  Levels:       1.   2.   3.   4.   5.   6.   7.   8.   9.  10.  11.  12.  13.  14.  15.  16.  17.  18.  19.  20.
(PID.TID 0000.0001)  Levels:      21.  22.  23.  24.
(PID.TID 0000.0001) DIAGNOSTICS_SET_POINTERS: Set levels for Outp.Stream: Phy32
(PID.TID 0000.0001)  Levels:       1.   2.   3.   4.   5.   6.   7.   8.   9.  10.  11.  12.  13.  14.  15.  16.  17.  18.  19.  20.
(PID.TID 0000.0001)  Levels:      21.  22.  23.  24.
(PID.TID 0000.0001) DIAGNOSTICS_SET_POINTERS: Set levels for Outp.Stream: Phy33
(PID.TID 0000.0001)  Levels:       1.   2.   3.   4.   5.   6.   7.   8.   9.  10.  11.  12.  13.  14.  15.  16.  17.  18.  19.  20.
(PID.TID 0000.0001)  Levels:      21.  22.  23.  24.
(PID.TID 0000.0001) DIAGNOSTICS_SET_POINTERS: Set levels for Outp.Stream: Phy34
(PID.TID 0000.0001)  Levels:       1.   2.   3.   4.   5.   6.   7.   8.   9.  10.  11.  12.  13.  14.  15.  16.  17.  18.  19.  20.
(PID.TID 0000.0001)  Levels:      21.  22.  23.  24.
(PID.TID 0000.0001) DIAGNOSTICS_SET_POINTERS: Set levels for Outp.Stream: Phy35
(PID.TID 0000.0001)  Levels:       1.   2.   3.   4.   5.   6.   7.   8.   9.  10.  11.  12.  13.  14.  15.  16.  17.  18.  19.  20.
(PID.TID 0000.0001)  Levels:      21.  22.  23.  24.
(PID.TID 0000.0001) DIAGNOSTICS_SET_POINTERS: Set levels for Outp.Stream: Phy36
(PID.TID 0000.0001)  Levels:       1.   2.   3.   4.   5.   6.   7.   8.   9.  10.  11.  12.  13.  14.  15.  16.  17.  18.  19.  20.
(PID.TID 0000.0001)  Levels:      21.  22.  23.  24.
(PID.TID 0000.0001) DIAGNOSTICS_SET_POINTERS: Set levels for Outp.Stream: Phy37
(PID.TID 0000.0001)  Levels:       1.   2.   3.   4.   5.   6.   7.   8.   9.  10.  11.  12.  13.  14.  15.  16.  17.  18.  19.  20.
(PID.TID 0000.0001)  Levels:      21.  22.  23.  24.
(PID.TID 0000.0001) DIAGNOSTICS_SET_POINTERS: Set levels for Outp.Stream: Phy38
(PID.TID 0000.0001)  Levels:       1.   2.   3.   4.   5.   6.   7.   8.   9.  10.  11.  12.  13.  14.  15.  16.  17.  18.  19.  20.
(PID.TID 0000.0001)  Levels:      21.  22.  23.  24.
(PID.TID 0000.0001) DIAGNOSTICS_SET_POINTERS: Set levels for Outp.Stream: Phy39
(PID.TID 0000.0001)  Levels:       1.   2.   3.   4.   5.   6.   7.   8.   9.  10.  11.  12.  13.  14.  15.  16.  17.  18.  19.  20.
(PID.TID 0000.0001)  Levels:      21.  22.  23.  24.
(PID.TID 0000.0001) DIAGNOSTICS_SET_POINTERS: Set levels for Outp.Stream: Phy40
(PID.TID 0000.0001)  Levels:       1.   2.   3.   4.   5.   6.   7.   8.   9.  10.  11.  12.  13.  14.  15.  16.  17.  18.  19.  20.
(PID.TID 0000.0001)  Levels:      21.  22.  23.  24.
(PID.TID 0000.0001) DIAGNOSTICS_SET_POINTERS: Set levels for Outp.Stream: Phy41
(PID.TID 0000.0001)  Levels:       1.   2.   3.   4.   5.   6.   7.   8.   9.  10.  11.  12.  13.  14.  15.  16.  17.  18.  19.  20.
(PID.TID 0000.0001)  Levels:      21.  22.  23.  24.
(PID.TID 0000.0001) DIAGNOSTICS_SET_POINTERS: Set levels for Outp.Stream: Phy42
(PID.TID 0000.0001)  Levels:       1.   2.   3.   4.   5.   6.   7.   8.   9.  10.  11.  12.  13.  14.  15.  16.  17.  18.  19.  20.
(PID.TID 0000.0001)  Levels:      21.  22.  23.  24.
(PID.TID 0000.0001) DIAGNOSTICS_SET_POINTERS: Set levels for Outp.Stream: Phy43
(PID.TID 0000.0001)  Levels:       1.   2.   3.   4.   5.   6.   7.   8.   9.  10.  11.  12.  13.  14.  15.  16.  17.  18.  19.  20.
(PID.TID 0000.0001)  Levels:      21.  22.  23.  24.
(PID.TID 0000.0001) DIAGNOSTICS_SET_POINTERS: Set levels for Outp.Stream: Phy44
(PID.TID 0000.0001)  Levels:       1.   2.   3.   4.   5.   6.   7.   8.   9.  10.  11.  12.  13.  14.  15.  16.  17.  18.  19.  20.
(PID.TID 0000.0001)  Levels:      21.  22.  23.  24.
(PID.TID 0000.0001) DIAGNOSTICS_SET_POINTERS: Set levels for Outp.Stream: Phy45
(PID.TID 0000.0001)  Levels:       1.   2.   3.   4.   5.   6.   7.   8.   9.  10.  11.  12.  13.  14.  15.  16.  17.  18.  19.  20.
(PID.TID 0000.0001)  Levels:      21.  22.  23.  24.
(PID.TID 0000.0001) DIAGNOSTICS_SET_POINTERS: Set levels for Outp.Stream: Phy46
(PID.TID 0000.0001)  Levels:       1.   2.   3.   4.   5.   6.   7.   8.   9.  10.  11.  12.  13.  14.  15.  16.  17.  18.  19.  20.
(PID.TID 0000.0001)  Levels:      21.  22.  23.  24.
(PID.TID 0000.0001) DIAGNOSTICS_SET_POINTERS: Set levels for Outp.Stream: Phy47
(PID.TID 0000.0001)  Levels:       1.   2.   3.   4.   5.   6.   7.   8.   9.  10.  11.  12.  13.  14.  15.  16.  17.  18.  19.  20.
(PID.TID 0000.0001)  Levels:      21.  22.  23.  24.
(PID.TID 0000.0001) DIAGNOSTICS_SET_POINTERS: Set levels for Outp.Stream: Phy48
(PID.TID 0000.0001)  Levels:       1.   2.   3.   4.   5.   6.   7.   8.   9.  10.  11.  12.  13.  14.  15.  16.  17.  18.  19.  20.
(PID.TID 0000.0001)  Levels:      21.  22.  23.  24.
(PID.TID 0000.0001) DIAGNOSTICS_SET_POINTERS: Set levels for Outp.Stream: Phy49
(PID.TID 0000.0001)  Levels:       1.   2.   3.   4.   5.   6.   7.   8.   9.  10.  11.  12.  13.  14.  15.  16.  17.  18.  19.  20.
(PID.TID 0000.0001)  Levels:      21.  22.  23.  24.
(PID.TID 0000.0001) DIAGNOSTICS_SET_POINTERS: Set levels for Outp.Stream: Phy50
(PID.TID 0000.0001)  Levels:       1.   2.   3.   4.   5.   6.   7.   8.   9.  10.  11.  12.  13.  14.  15.  16.  17.  18.  19.  20.
(PID.TID 0000.0001)  Levels:      21.  22.  23.  24.
(PID.TID 0000.0001) DIAGNOSTICS_SET_POINTERS: Set levels for Outp.Stream: Phy51
(PID.TID 0000.0001)  Levels:       1.   2.   3.   4.   5.   6.   7.   8.   9.  10.  11.  12.  13.  14.  15.  16.  17.  18.  19.  20.
(PID.TID 0000.0001)  Levels:      21.  22.  23.  24.
(PID.TID 0000.0001) DIAGNOSTICS_SET_POINTERS: Set levels for Outp.Stream: Phy52
(PID.TID 0000.0001)  Levels:       1.   2.   3.   4.   5.   6.   7.   8.   9.  10.  11.  12.  13.  14.  15.  16.  17.  18.  19.  20.
(PID.TID 0000.0001)  Levels:      21.  22.  23.  24.
(PID.TID 0000.0001) DIAGNOSTICS_SET_POINTERS: Set levels for Outp.Stream: Phy53
(PID.TID 0000.0001)  Levels:       1.   2.   3.   4.   5.   6.   7.   8.   9.  10.  11.  12.  13.  14.  15.  16.  17.  18.  19.  20.
(PID.TID 0000.0001)  Levels:      21.  22.  23.  24.
(PID.TID 0000.0001) DIAGNOSTICS_SET_POINTERS: Set levels for Outp.Stream: Phy54
(PID.TID 0000.0001)  Levels:       1.   2.   3.   4.   5.   6.   7.   8.   9.  10.  11.  12.  13.  14.  15.  16.  17.  18.  19.  20.
(PID.TID 0000.0001)  Levels:      21.  22.  23.  24.
(PID.TID 0000.0001) DIAGNOSTICS_SET_POINTERS: Set levels for Outp.Stream: Phy55
(PID.TID 0000.0001)  Levels:       1.   2.   3.   4.   5.   6.   7.   8.   9.  10.  11.  12.  13.  14.  15.  16.  17.  18.  19.  20.
(PID.TID 0000.0001)  Levels:      21.  22.  23.  24.
(PID.TID 0000.0001) DIAGNOSTICS_SET_POINTERS: Set levels for Outp.Stream: Phy56
(PID.TID 0000.0001)  Levels:       1.   2.   3.   4.   5.   6.   7.   8.   9.  10.  11.  12.  13.  14.  15.  16.  17.  18.  19.  20.
(PID.TID 0000.0001)  Levels:      21.  22.  23.  24.
(PID.TID 0000.0001) DIAGNOSTICS_SET_POINTERS: Set levels for Outp.Stream: Phy57
(PID.TID 0000.0001)  Levels:       1.   2.   3.   4.   5.   6.   7.   8.   9.  10.  11.  12.  13.  14.  15.  16.  17.  18.  19.  20.
(PID.TID 0000.0001)  Levels:      21.  22.  23.  24.
(PID.TID 0000.0001) DIAGNOSTICS_SET_POINTERS: Set levels for Outp.Stream: Phy58
(PID.TID 0000.0001)  Levels:       1.   2.   3.   4.   5.   6.   7.   8.   9.  10.  11.  12.  13.  14.  15.  16.  17.  18.  19.  20.
(PID.TID 0000.0001)  Levels:      21.  22.  23.  24.
(PID.TID 0000.0001) DIAGNOSTICS_SET_POINTERS: Set levels for Outp.Stream: Phy59
(PID.TID 0000.0001)  Levels:       1.   2.   3.   4.   5.   6.   7.   8.   9.  10.  11.  12.  13.  14.  15.  16.  17.  18.  19.  20.
(PID.TID 0000.0001)  Levels:      21.  22.  23.  24.
(PID.TID 0000.0001) DIAGNOSTICS_SET_POINTERS: Set levels for Outp.Stream: Phy60
(PID.TID 0000.0001)  Levels:       1.   2.   3.   4.   5.   6.   7.   8.   9.  10.  11.  12.  13.  14.  15.  16.  17.  18.  19.  20.
(PID.TID 0000.0001)  Levels:      21.  22.  23.  24.
(PID.TID 0000.0001) DIAGNOSTICS_SET_POINTERS: Set levels for Outp.Stream: Phy61
(PID.TID 0000.0001)  Levels:       1.   2.   3.   4.   5.   6.   7.   8.   9.  10.  11.  12.  13.  14.  15.  16.  17.  18.  19.  20.
(PID.TID 0000.0001)  Levels:      21.  22.  23.  24.
(PID.TID 0000.0001) DIAGNOSTICS_SET_POINTERS: Set levels for Outp.Stream: Phy62
(PID.TID 0000.0001)  Levels:       1.   2.   3.   4.   5.   6.   7.   8.   9.  10.  11.  12.  13.  14.  15.  16.  17.  18.  19.  20.
(PID.TID 0000.0001)  Levels:      21.  22.  23.  24.
(PID.TID 0000.0001) DIAGNOSTICS_SET_POINTERS: Set levels for Outp.Stream: Phy63
(PID.TID 0000.0001)  Levels:       1.   2.   3.   4.   5.   6.   7.   8.   9.  10.  11.  12.  13.  14.  15.  16.  17.  18.  19.  20.
(PID.TID 0000.0001)  Levels:      21.  22.  23.  24.
(PID.TID 0000.0001) DIAGNOSTICS_SET_POINTERS: Set levels for Outp.Stream: Phy64
(PID.TID 0000.0001)  Levels:       1.   2.   3.   4.   5.   6.   7.   8.   9.  10.  11.  12.  13.  14.  15.  16.  17.  18.  19.  20.
(PID.TID 0000.0001)  Levels:      21.  22.  23.  24.
(PID.TID 0000.0001) DIAGNOSTICS_SET_POINTERS: Set levels for Outp.Stream: Phy65
(PID.TID 0000.0001)  Levels:       1.   2.   3.   4.   5.   6.   7.   8.   9.  10.  11.  12.  13.  14.  15.  16.  17.  18.  19.  20.
(PID.TID 0000.0001)  Levels:      21.  22.  23.  24.
(PID.TID 0000.0001) DIAGNOSTICS_SET_POINTERS: Set levels for Outp.Stream: Phy66
(PID.TID 0000.0001)  Levels:       1.   2.   3.   4.   5.   6.   7.   8.   9.  10.  11.  12.  13.  14.  15.  16.  17.  18.  19.  20.
(PID.TID 0000.0001)  Levels:      21.  22.  23.  24.
(PID.TID 0000.0001) DIAGNOSTICS_SET_POINTERS: Set levels for Outp.Stream: Phy67
(PID.TID 0000.0001)  Levels:       1.   2.   3.   4.   5.   6.   7.   8.   9.  10.  11.  12.  13.  14.  15.  16.  17.  18.  19.  20.
(PID.TID 0000.0001)  Levels:      21.  22.  23.  24.
(PID.TID 0000.0001) DIAGNOSTICS_SET_POINTERS: Set levels for Outp.Stream: Phy68
(PID.TID 0000.0001)  Levels:       1.   2.   3.   4.   5.   6.   7.   8.   9.  10.  11.  12.  13.  14.  15.  16.  17.  18.  19.  20.
(PID.TID 0000.0001)  Levels:      21.  22.  23.  24.
(PID.TID 0000.0001) DIAGNOSTICS_SET_POINTERS: Set levels for Outp.Stream: Phy69
(PID.TID 0000.0001)  Levels:       1.   2.   3.   4.   5.   6.   7.   8.   9.  10.  11.  12.  13.  14.  15.  16.  17.  18.  19.  20.
(PID.TID 0000.0001)  Levels:      21.  22.  23.  24.
(PID.TID 0000.0001) DIAGNOSTICS_SET_POINTERS: Set levels for Outp.Stream: Phy70
(PID.TID 0000.0001)  Levels:       1.   2.   3.   4.   5.   6.   7.   8.   9.  10.  11.  12.  13.  14.  15.  16.  17.  18.  19.  20.
(PID.TID 0000.0001)  Levels:      21.  22.  23.  24.
(PID.TID 0000.0001) DIAGNOSTICS_SET_POINTERS: Set levels for Outp.Stream: Phy71
(PID.TID 0000.0001)  Levels:       1.   2.   3.   4.   5.   6.   7.   8.   9.  10.  11.  12.  13.  14.  15.  16.  17.  18.  19.  20.
(PID.TID 0000.0001)  Levels:      21.  22.  23.  24.
(PID.TID 0000.0001) DIAGNOSTICS_SET_POINTERS: Set levels for Outp.Stream: Phy72
(PID.TID 0000.0001)  Levels:       1.   2.   3.   4.   5.   6.   7.   8.   9.  10.  11.  12.  13.  14.  15.  16.  17.  18.  19.  20.
(PID.TID 0000.0001)  Levels:      21.  22.  23.  24.
(PID.TID 0000.0001) DIAGNOSTICS_SET_POINTERS: Set levels for Outp.Stream: Phy73
(PID.TID 0000.0001)  Levels:       1.   2.   3.   4.   5.   6.   7.   8.   9.  10.  11.  12.  13.  14.  15.  16.  17.  18.  19.  20.
(PID.TID 0000.0001)  Levels:      21.  22.  23.  24.
(PID.TID 0000.0001) DIAGNOSTICS_SET_POINTERS: Set levels for Outp.Stream: Phy74
(PID.TID 0000.0001)  Levels:       1.   2.   3.   4.   5.   6.   7.   8.   9.  10.  11.  12.  13.  14.  15.  16.  17.  18.  19.  20.
(PID.TID 0000.0001)  Levels:      21.  22.  23.  24.
(PID.TID 0000.0001) DIAGNOSTICS_SET_POINTERS: Set levels for Outp.Stream: Phy75
(PID.TID 0000.0001)  Levels:       1.   2.   3.   4.   5.   6.   7.   8.   9.  10.  11.  12.  13.  14.  15.  16.  17.  18.  19.  20.
(PID.TID 0000.0001)  Levels:      21.  22.  23.  24.
(PID.TID 0000.0001) DIAGNOSTICS_SET_POINTERS: Set levels for Outp.Stream: Phy76
(PID.TID 0000.0001)  Levels:       1.   2.   3.   4.   5.   6.   7.   8.   9.  10.  11.  12.  13.  14.  15.  16.  17.  18.  19.  20.
(PID.TID 0000.0001)  Levels:      21.  22.  23.  24.
(PID.TID 0000.0001) DIAGNOSTICS_SET_POINTERS: Set levels for Outp.Stream: Phy77
(PID.TID 0000.0001)  Levels:       1.   2.   3.   4.   5.   6.   7.   8.   9.  10.  11.  12.  13.  14.  15.  16.  17.  18.  19.  20.
(PID.TID 0000.0001)  Levels:      21.  22.  23.  24.
(PID.TID 0000.0001) DIAGNOSTICS_SET_POINTERS: Set levels for Outp.Stream: Phy78
(PID.TID 0000.0001)  Levels:       1.   2.   3.   4.   5.   6.   7.   8.   9.  10.  11.  12.  13.  14.  15.  16.  17.  18.  19.  20.
(PID.TID 0000.0001)  Levels:      21.  22.  23.  24.
(PID.TID 0000.0001) DIAGNOSTICS_SET_POINTERS: done
(PID.TID 0000.0001) ------------------------------------------------------------
(PID.TID 0000.0001) DIAGSTATS_SET_REGIONS: define no region
(PID.TID 0000.0001) ------------------------------------------------------------
(PID.TID 0000.0001) SETDIAG: Allocate  1 Levels for Stats-Diag #  1386 SIqsw
(PID.TID 0000.0001) SETDIAG: Allocate  1 Levels for Stats-Diag #    81 oceQsw
(PID.TID 0000.0001) SETDIAG: Allocate 24 Levels for Stats-Diag #  1280 PAR
(PID.TID 0000.0001) SETDIAG: Allocate  1 Levels for Stats-Diag #   162 EXFswnet
(PID.TID 0000.0001) SETDIAG: Allocate  1 Levels for Stats-Diag #   164 EXFswdn
(PID.TID 0000.0001) SETDIAG: Allocate 24 Levels for Stats-Diag #    26 THETA
(PID.TID 0000.0001) SETDIAG: Allocate 24 Levels for Stats-Diag #    29 SALTanom
(PID.TID 0000.0001) SETDIAG: Allocate 24 Levels for Stats-Diag #  1281 PP
(PID.TID 0000.0001) SETDIAG: Allocate 24 Levels for Stats-Diag #  1049 TRAC79
(PID.TID 0000.0001) SETDIAG: Allocate  1 Levels for Stats-Diag #    23 ETAN
(PID.TID 0000.0001) SETDIAG: Allocate 24 Levels for Stats-Diag #   213 TRAC03
(PID.TID 0000.0001)   space allocated for all stats-diags:     149 levels
(PID.TID 0000.0001) DIAGSTATS_SET_POINTERS: done
(PID.TID 0000.0001) ------------------------------------------------------------
(PID.TID 0000.0001) DIAGSTATS_INI_IO: open file: SIqsw_stat.0000188388.txt , unit=     9
(PID.TID 0000.0001) DIAGSTATS_INI_IO: open file: oceQsw_stat.0000188388.txt , unit=    10
(PID.TID 0000.0001) DIAGSTATS_INI_IO: open file: PAR_stat.0000188388.txt , unit=    11
(PID.TID 0000.0001) DIAGSTATS_INI_IO: open file: EXFswnet_stat.0000188388.txt , unit=    12
(PID.TID 0000.0001) DIAGSTATS_INI_IO: open file: EXFswdn_stat.0000188388.txt , unit=    13
(PID.TID 0000.0001) DIAGSTATS_INI_IO: open file: THETA_stat.0000188388.txt , unit=    14
(PID.TID 0000.0001) DIAGSTATS_INI_IO: open file: SALTanom_stat.0000188388.txt , unit=    16
(PID.TID 0000.0001) DIAGSTATS_INI_IO: open file: PP_stat.0000188388.txt , unit=    17
(PID.TID 0000.0001) DIAGSTATS_INI_IO: open file: Phy58_stat.0000188388.txt , unit=    18
(PID.TID 0000.0001) DIAGSTATS_INI_IO: open file: ETAN_stat.0000188388.txt , unit=    19
(PID.TID 0000.0001) DIAGSTATS_INI_IO: open file: FeT_stat.0000188388.txt , unit=    20
(PID.TID 0000.0001) %MON fCori_max                    =   1.3473519476330E-04
(PID.TID 0000.0001) %MON fCori_min                    =   1.1413140759594E-04
(PID.TID 0000.0001) %MON fCori_mean                   =   1.2544553688214E-04
(PID.TID 0000.0001) %MON fCori_sd                     =   5.0297255000290E-06
(PID.TID 0000.0001) %MON fCoriG_max                   =   1.3464029717915E-04
(PID.TID 0000.0001) %MON fCoriG_min                   =   1.1394771627180E-04
(PID.TID 0000.0001) %MON fCoriG_mean                  =   1.2530547026595E-04
(PID.TID 0000.0001) %MON fCoriG_sd                    =   5.0490402546811E-06
(PID.TID 0000.0001) %MON fCoriCos_max                 =   9.0796739781711E-05
(PID.TID 0000.0001) %MON fCoriCos_min                 =   5.5825204405476E-05
(PID.TID 0000.0001) %MON fCoriCos_mean                =   7.3724492265692E-05
(PID.TID 0000.0001) %MON fCoriCos_sd                  =   8.5349008623744E-06
(PID.TID 0000.0001) INI_CG2D: CG2D normalisation factor =  1.3850385103405694E-03
(PID.TID 0000.0001) 
(PID.TID 0000.0001) // =======================================================
(PID.TID 0000.0001) // Model configuration
(PID.TID 0000.0001) // =======================================================
(PID.TID 0000.0001) //
(PID.TID 0000.0001) // "Physical" paramters ( PARM01 in namelist )
(PID.TID 0000.0001) //
(PID.TID 0000.0001) buoyancyRelation = /* Type of relation to get Buoyancy */
(PID.TID 0000.0001)               'OCEANIC'
(PID.TID 0000.0001)     ;
(PID.TID 0000.0001) fluidIsAir  =  /* fluid major constituent is Air */
(PID.TID 0000.0001)                   F
(PID.TID 0000.0001)     ;
(PID.TID 0000.0001) fluidIsWater=  /* fluid major constituent is Water */
(PID.TID 0000.0001)                   T
(PID.TID 0000.0001)     ;
(PID.TID 0000.0001) usingPCoords =  /* use p (or p*) vertical coordinate */
(PID.TID 0000.0001)                   F
(PID.TID 0000.0001)     ;
(PID.TID 0000.0001) usingZCoords =  /* use z (or z*) vertical coordinate */
(PID.TID 0000.0001)                   T
(PID.TID 0000.0001)     ;
(PID.TID 0000.0001) tRef =   /* Reference temperature profile ( oC or K ) */
(PID.TID 0000.0001)     3 @  2.300000000000000E+01,             /* K =  1:  3 */
(PID.TID 0000.0001)     3 @  2.200000000000000E+01,             /* K =  4:  6 */
(PID.TID 0000.0001)                 2.100000000000000E+01,      /* K =  7 */
(PID.TID 0000.0001)     2 @  2.000000000000000E+01,             /* K =  8:  9 */
(PID.TID 0000.0001)                 1.900000000000000E+01,      /* K = 10 */
(PID.TID 0000.0001)     2 @  1.800000000000000E+01,             /* K = 11: 12 */
(PID.TID 0000.0001)                 1.700000000000000E+01,      /* K = 13 */
(PID.TID 0000.0001)     2 @  1.600000000000000E+01,             /* K = 14: 15 */
(PID.TID 0000.0001)                 1.500000000000000E+01,      /* K = 16 */
(PID.TID 0000.0001)                 1.400000000000000E+01,      /* K = 17 */
(PID.TID 0000.0001)                 1.300000000000000E+01,      /* K = 18 */
(PID.TID 0000.0001)                 1.200000000000000E+01,      /* K = 19 */
(PID.TID 0000.0001)                 1.100000000000000E+01,      /* K = 20 */
(PID.TID 0000.0001)     2 @  9.000000000000000E+00,             /* K = 21: 22 */
(PID.TID 0000.0001)                 8.000000000000000E+00,      /* K = 23 */
(PID.TID 0000.0001)                 7.000000000000000E+00       /* K = 24 */
(PID.TID 0000.0001)     ;
(PID.TID 0000.0001) sRef =   /* Reference salinity profile ( psu ) */
(PID.TID 0000.0001)    24 @  3.450000000000000E+01              /* K =  1: 24 */
(PID.TID 0000.0001)     ;
(PID.TID 0000.0001) viscAh =   /* Lateral eddy viscosity ( m^2/s ) */
(PID.TID 0000.0001)                 0.000000000000000E+00
(PID.TID 0000.0001)     ;
(PID.TID 0000.0001) viscAhMax =   /* Maximum lateral eddy viscosity ( m^2/s ) */
(PID.TID 0000.0001)                 1.000000000000000E+21
(PID.TID 0000.0001)     ;
(PID.TID 0000.0001) viscAhGrid =   /* Grid dependent lateral eddy viscosity ( non-dim. ) */
(PID.TID 0000.0001)                 0.000000000000000E+00
(PID.TID 0000.0001)     ;
(PID.TID 0000.0001) useFullLeith =   /* Use Full Form of Leith Viscosity on/off flag*/
(PID.TID 0000.0001)                   F
(PID.TID 0000.0001)     ;
(PID.TID 0000.0001) useStrainTensionVisc =   /* Use StrainTension Form of Viscous Operator on/off flag*/
(PID.TID 0000.0001)                   F
(PID.TID 0000.0001)     ;
(PID.TID 0000.0001) useAreaViscLength =   /* Use area for visc length instead of geom. mean*/
(PID.TID 0000.0001)                   T
(PID.TID 0000.0001)     ;
(PID.TID 0000.0001) viscC2leith = /* Leith harmonic visc. factor (on grad(vort),non-dim.) */
(PID.TID 0000.0001)                 0.000000000000000E+00
(PID.TID 0000.0001)     ;
(PID.TID 0000.0001) viscC2leithD = /* Leith harmonic viscosity factor (on grad(div),non-dim.) */
(PID.TID 0000.0001)                 0.000000000000000E+00
(PID.TID 0000.0001)     ;
(PID.TID 0000.0001) viscC2smag =   /* Smagorinsky harmonic viscosity factor (non-dim.) */
(PID.TID 0000.0001)                 0.000000000000000E+00
(PID.TID 0000.0001)     ;
(PID.TID 0000.0001) viscA4 =   /* Lateral biharmonic viscosity ( m^4/s ) */
(PID.TID 0000.0001)                 0.000000000000000E+00
(PID.TID 0000.0001)     ;
(PID.TID 0000.0001) viscA4Max =   /* Maximum biharmonic viscosity ( m^2/s ) */
(PID.TID 0000.0001)                 1.000000000000000E+21
(PID.TID 0000.0001)     ;
(PID.TID 0000.0001) viscA4Grid =   /* Grid dependent biharmonic viscosity ( non-dim. ) */
(PID.TID 0000.0001)                 0.000000000000000E+00
(PID.TID 0000.0001)     ;
(PID.TID 0000.0001) viscC4leith = /* Leith biharm viscosity factor (on grad(vort), non-dim.) */
(PID.TID 0000.0001)                 1.500000000000000E+00
(PID.TID 0000.0001)     ;
(PID.TID 0000.0001) viscC4leithD = /* Leith biharm viscosity factor (on grad(div), non-dim.) */
(PID.TID 0000.0001)                 1.500000000000000E+00
(PID.TID 0000.0001)     ;
(PID.TID 0000.0001) viscC4Smag = /* Smagorinsky biharm viscosity factor (non-dim) */
(PID.TID 0000.0001)                 0.000000000000000E+00
(PID.TID 0000.0001)     ;
(PID.TID 0000.0001) no_slip_sides =  /* Viscous BCs: No-slip sides */
(PID.TID 0000.0001)                   F
(PID.TID 0000.0001)     ;
(PID.TID 0000.0001) sideDragFactor = /* side-drag scaling factor (non-dim) */
(PID.TID 0000.0001)                 0.000000000000000E+00
(PID.TID 0000.0001)     ;
(PID.TID 0000.0001) viscAr =   /* Vertical eddy viscosity ( m^2/s ) */
(PID.TID 0000.0001)                 6.082600000000000E-04
(PID.TID 0000.0001)     ;
(PID.TID 0000.0001) no_slip_bottom =  /* Viscous BCs: No-slip bottom */
(PID.TID 0000.0001)                   T
(PID.TID 0000.0001)     ;
(PID.TID 0000.0001) bottomDragLinear = /* linear bottom-drag coefficient ( m/s ) */
(PID.TID 0000.0001)                 0.000000000000000E+00
(PID.TID 0000.0001)     ;
(PID.TID 0000.0001) bottomDragQuadratic = /* quadratic bottom-drag coefficient (-) */
(PID.TID 0000.0001)                 2.000000000000000E-03
(PID.TID 0000.0001)     ;
(PID.TID 0000.0001) diffKhT =   /* Laplacian diffusion of heat laterally ( m^2/s ) */
(PID.TID 0000.0001)                 0.000000000000000E+00
(PID.TID 0000.0001)     ;
(PID.TID 0000.0001) diffK4T =   /* Biharmonic diffusion of heat laterally ( m^4/s ) */
(PID.TID 0000.0001)                 0.000000000000000E+00
(PID.TID 0000.0001)     ;
(PID.TID 0000.0001) diffKhS =   /* Laplacian diffusion of salt laterally ( m^2/s ) */
(PID.TID 0000.0001)                 0.000000000000000E+00
(PID.TID 0000.0001)     ;
(PID.TID 0000.0001) diffK4S =   /* Biharmonic diffusion of salt laterally ( m^4/s ) */
(PID.TID 0000.0001)                 0.000000000000000E+00
(PID.TID 0000.0001)     ;
(PID.TID 0000.0001) diffKrNrT = /* vertical profile of vertical diffusion of Temp ( m^2/s )*/
(PID.TID 0000.0001)    24 @  1.000000000000000E-06              /* K =  1: 24 */
(PID.TID 0000.0001)     ;
(PID.TID 0000.0001) diffKrNrS = /* vertical profile of vertical diffusion of Salt ( m^2/s )*/
(PID.TID 0000.0001)    24 @  1.000000000000000E-06              /* K =  1: 24 */
(PID.TID 0000.0001)     ;
(PID.TID 0000.0001) diffKrBL79surf = /* Surface diffusion for Bryan and Lewis 79 ( m^2/s ) */
(PID.TID 0000.0001)                 0.000000000000000E+00
(PID.TID 0000.0001)     ;
(PID.TID 0000.0001) diffKrBL79deep = /* Deep diffusion for Bryan and Lewis 1979 ( m^2/s ) */
(PID.TID 0000.0001)                 0.000000000000000E+00
(PID.TID 0000.0001)     ;
(PID.TID 0000.0001) diffKrBL79scl = /* Depth scale for Bryan and Lewis 1979 ( m ) */
(PID.TID 0000.0001)                 2.000000000000000E+02
(PID.TID 0000.0001)     ;
(PID.TID 0000.0001) diffKrBL79Ho = /* Turning depth for Bryan and Lewis 1979 ( m ) */
(PID.TID 0000.0001)                -2.000000000000000E+03
(PID.TID 0000.0001)     ;
(PID.TID 0000.0001) ivdc_kappa = /* Implicit Vertical Diffusivity for Convection ( m^2/s ) */
(PID.TID 0000.0001)                 0.000000000000000E+00
(PID.TID 0000.0001)     ;
(PID.TID 0000.0001) hMixCriteria=  /* Criteria for mixed-layer diagnostic */
(PID.TID 0000.0001)                -8.000000000000000E-01
(PID.TID 0000.0001)     ;
(PID.TID 0000.0001) dRhoSmall=  /* Parameter for mixed-layer diagnostic */
(PID.TID 0000.0001)                 1.000000000000000E-06
(PID.TID 0000.0001)     ;
(PID.TID 0000.0001) hMixSmooth=  /* Smoothing parameter for mixed-layer diagnostic */
(PID.TID 0000.0001)                 0.000000000000000E+00
(PID.TID 0000.0001)     ;
(PID.TID 0000.0001) eosType =  /* Type of Equation of State */
(PID.TID 0000.0001)               'JMD95Z'
(PID.TID 0000.0001)     ;
(PID.TID 0000.0001) tAlpha =   /* Linear EOS thermal expansion coefficient ( 1/oC ) */
(PID.TID 0000.0001)                 1.234567000000000E+05
(PID.TID 0000.0001)     ;
(PID.TID 0000.0001) sBeta =   /* Linear EOS haline contraction coefficient ( 1/psu ) */
(PID.TID 0000.0001)                 1.234567000000000E+05
(PID.TID 0000.0001)     ;
(PID.TID 0000.0001) rhonil =   /* Reference density ( kg/m^3 ) */
(PID.TID 0000.0001)                 1.027500000000000E+03
(PID.TID 0000.0001)     ;
(PID.TID 0000.0001) rhoConst =   /* Reference density ( kg/m^3 ) */
(PID.TID 0000.0001)                 1.027500000000000E+03
(PID.TID 0000.0001)     ;
(PID.TID 0000.0001) rhoFacC = /* normalized Reference density @ cell-Center (-) */
(PID.TID 0000.0001)    24 @  1.000000000000000E+00              /* K =  1: 24 */
(PID.TID 0000.0001)     ;
(PID.TID 0000.0001) rhoFacF = /* normalized Reference density @ W-Interface (-) */
(PID.TID 0000.0001)    25 @  1.000000000000000E+00              /* K =  1: 25 */
(PID.TID 0000.0001)     ;
(PID.TID 0000.0001) rhoConstFresh =   /* Reference density ( kg/m^3 ) */
(PID.TID 0000.0001)                 9.998000000000000E+02
(PID.TID 0000.0001)     ;
(PID.TID 0000.0001) gravity =   /* Gravitational acceleration ( m/s^2 ) */
(PID.TID 0000.0001)                 9.810000000000000E+00
(PID.TID 0000.0001)     ;
(PID.TID 0000.0001) gBaro =   /* Barotropic gravity ( m/s^2 ) */
(PID.TID 0000.0001)                 9.810000000000000E+00
(PID.TID 0000.0001)     ;
(PID.TID 0000.0001) rotationPeriod =   /* Rotation Period ( s ) */
(PID.TID 0000.0001)                 8.616400000000000E+04
(PID.TID 0000.0001)     ;
(PID.TID 0000.0001) omega =   /* Angular velocity ( rad/s ) */
(PID.TID 0000.0001)                 7.292123516990375E-05
(PID.TID 0000.0001)     ;
(PID.TID 0000.0001) f0 =   /* Reference coriolis parameter ( 1/s ) */
(PID.TID 0000.0001)                 1.000000000000000E-04
(PID.TID 0000.0001)     ;
(PID.TID 0000.0001) beta =   /* Beta ( 1/(m.s) ) */
(PID.TID 0000.0001)                 9.999999999999999E-12
(PID.TID 0000.0001)     ;
(PID.TID 0000.0001) freeSurfFac =   /* Implicit free surface factor */
(PID.TID 0000.0001)                 1.000000000000000E+00
(PID.TID 0000.0001)     ;
(PID.TID 0000.0001) implicitFreeSurface =   /* Implicit free surface on/off flag */
(PID.TID 0000.0001)                   T
(PID.TID 0000.0001)     ;
(PID.TID 0000.0001) rigidLid =   /* Rigid lid on/off flag */
(PID.TID 0000.0001)                   F
(PID.TID 0000.0001)     ;
(PID.TID 0000.0001) implicSurfPress =   /* Surface Pressure implicit factor (0-1)*/
(PID.TID 0000.0001)                 1.000000000000000E+00
(PID.TID 0000.0001)     ;
(PID.TID 0000.0001) implicDiv2Dflow =   /* Barot. Flow Div. implicit factor (0-1)*/
(PID.TID 0000.0001)                 1.000000000000000E+00
(PID.TID 0000.0001)     ;
(PID.TID 0000.0001) exactConserv =   /* Exact Volume Conservation on/off flag*/
(PID.TID 0000.0001)                   T
(PID.TID 0000.0001)     ;
(PID.TID 0000.0001) linFSConserveTr =   /* Tracer correction for Lin Free Surface on/off flag*/
(PID.TID 0000.0001)                   F
(PID.TID 0000.0001)     ;
(PID.TID 0000.0001) uniformLin_PhiSurf =   /* use uniform Bo_surf on/off flag*/
(PID.TID 0000.0001)                   T
(PID.TID 0000.0001)     ;
(PID.TID 0000.0001) nonlinFreeSurf =   /* Non-linear Free Surf. options (-1,0,1,2,3)*/
(PID.TID 0000.0001)                       0
(PID.TID 0000.0001)     ;
(PID.TID 0000.0001)      -1,0= Off ; 1,2,3= On, 2=+rescale gU,gV, 3=+update cg2d solv.
(PID.TID 0000.0001) hFacInf =   /* lower threshold for hFac (nonlinFreeSurf only)*/
(PID.TID 0000.0001)                 1.000000000000000E-01
(PID.TID 0000.0001)     ;
(PID.TID 0000.0001) hFacSup =   /* upper threshold for hFac (nonlinFreeSurf only)*/
(PID.TID 0000.0001)                 5.000000000000000E+00
(PID.TID 0000.0001)     ;
(PID.TID 0000.0001) select_rStar = /* r* Vertical coord. options (=0 r coord.; > 0 uses r*) */
(PID.TID 0000.0001)                       0
(PID.TID 0000.0001)     ;
(PID.TID 0000.0001) selectAddFluid = /* option for mass source/sink of fluid (=0: off) */
(PID.TID 0000.0001)                       0
(PID.TID 0000.0001)     ;
(PID.TID 0000.0001) useRealFreshWaterFlux = /* Real Fresh Water Flux on/off flag*/
(PID.TID 0000.0001)                   F
(PID.TID 0000.0001)     ;
(PID.TID 0000.0001) temp_EvPrRn = /* Temp. of Evap/Prec/R (UNSET=use local T)(oC)*/
(PID.TID 0000.0001)                 1.234567000000000E+05
(PID.TID 0000.0001)     ;
(PID.TID 0000.0001) salt_EvPrRn = /* Salin. of Evap/Prec/R (UNSET=use local S)(ppt)*/
(PID.TID 0000.0001)                 0.000000000000000E+00
(PID.TID 0000.0001)     ;
(PID.TID 0000.0001) convertFW2Salt = /* convert F.W. Flux to Salt Flux (-1=use local S)(ppt)*/
(PID.TID 0000.0001)                -1.000000000000000E+00
(PID.TID 0000.0001)     ;
(PID.TID 0000.0001) use3Dsolver = /* use 3-D pressure solver on/off flag */
(PID.TID 0000.0001)                   F
(PID.TID 0000.0001)     ;
(PID.TID 0000.0001) nonHydrostatic =  /* Non-Hydrostatic on/off flag */
(PID.TID 0000.0001)                   F
(PID.TID 0000.0001)     ;
(PID.TID 0000.0001) nh_Am2 = /* Non-Hydrostatic terms scaling factor */
(PID.TID 0000.0001)                 1.000000000000000E+00
(PID.TID 0000.0001)     ;
(PID.TID 0000.0001) quasiHydrostatic = /* Quasi-Hydrostatic on/off flag */
(PID.TID 0000.0001)                   F
(PID.TID 0000.0001)     ;
(PID.TID 0000.0001) momStepping =  /* Momentum equation on/off flag */
(PID.TID 0000.0001)                   T
(PID.TID 0000.0001)     ;
(PID.TID 0000.0001) vectorInvariantMomentum= /* Vector-Invariant Momentum on/off */
(PID.TID 0000.0001)                   T
(PID.TID 0000.0001)     ;
(PID.TID 0000.0001) momAdvection =  /* Momentum advection on/off flag */
(PID.TID 0000.0001)                   T
(PID.TID 0000.0001)     ;
(PID.TID 0000.0001) momViscosity =  /* Momentum viscosity on/off flag */
(PID.TID 0000.0001)                   T
(PID.TID 0000.0001)     ;
(PID.TID 0000.0001) momImplVertAdv =/* Momentum implicit vert. advection on/off*/
(PID.TID 0000.0001)                   F
(PID.TID 0000.0001)     ;
(PID.TID 0000.0001) implicitViscosity = /* Implicit viscosity on/off flag */
(PID.TID 0000.0001)                   T
(PID.TID 0000.0001)     ;
(PID.TID 0000.0001) metricTerms =  /* metric-Terms on/off flag */
(PID.TID 0000.0001)                   F
(PID.TID 0000.0001)     ;
(PID.TID 0000.0001) useNHMTerms = /* Non-Hydrostatic Metric-Terms on/off */
(PID.TID 0000.0001)                   F
(PID.TID 0000.0001)     ;
(PID.TID 0000.0001) useConstantF =  /* use Constant f0 Coriolis flag */
(PID.TID 0000.0001)                   F
(PID.TID 0000.0001)     ;
(PID.TID 0000.0001) useBetaPlaneF = /* use Beta-Plane Coriolis flag */
(PID.TID 0000.0001)                   F
(PID.TID 0000.0001)     ;
(PID.TID 0000.0001) useSphereF  =   /* use Spherical Coriolis flag */
(PID.TID 0000.0001)                   T
(PID.TID 0000.0001)     ;
(PID.TID 0000.0001) use3dCoriolis = /* 3-D Coriolis on/off flag */
(PID.TID 0000.0001)                   F
(PID.TID 0000.0001)     ;
(PID.TID 0000.0001) useCoriolis =  /* Coriolis on/off flag */
(PID.TID 0000.0001)                   T
(PID.TID 0000.0001)     ;
(PID.TID 0000.0001) useCDscheme =  /* CD scheme on/off flag */
(PID.TID 0000.0001)                   F
(PID.TID 0000.0001)     ;
(PID.TID 0000.0001) useJamartWetPoints= /* Coriolis WetPoints method flag */
(PID.TID 0000.0001)                   F
(PID.TID 0000.0001)     ;
(PID.TID 0000.0001) useJamartMomAdv= /* V.I. Non-linear terms Jamart flag */
(PID.TID 0000.0001)                   F
(PID.TID 0000.0001)     ;
(PID.TID 0000.0001) useAbsVorticity= /* Work with f+zeta in Coriolis */
(PID.TID 0000.0001)                   F
(PID.TID 0000.0001)     ;
(PID.TID 0000.0001) selectVortScheme= /* Scheme selector for Vorticity-Term */
(PID.TID 0000.0001)                       0
(PID.TID 0000.0001)    = 0 : enstrophy (Shallow-Water Eq.) conserving scheme by Sadourny, JAS 75
(PID.TID 0000.0001)    = 1 : same as 0 with modified hFac
(PID.TID 0000.0001)    = 2 : energy conserving scheme (used by Sadourny in JAS 75 paper)
(PID.TID 0000.0001)    = 3 : energy (general) and enstrophy (2D, nonDiv.) conserving scheme
(PID.TID 0000.0001)          from Sadourny (Burridge & Haseler, ECMWF Rep.4, 1977)
(PID.TID 0000.0001)     ;
(PID.TID 0000.0001) upwindVorticity= /* Upwind bias vorticity flag */
(PID.TID 0000.0001)                   F
(PID.TID 0000.0001)     ;
(PID.TID 0000.0001) highOrderVorticity= /* High order interp. of vort. flag */
(PID.TID 0000.0001)                   T
(PID.TID 0000.0001)     ;
(PID.TID 0000.0001) upwindShear= /* Upwind vertical Shear advection flag */
(PID.TID 0000.0001)                   F
(PID.TID 0000.0001)     ;
(PID.TID 0000.0001) selectKEscheme= /* Kinetic Energy scheme selector */
(PID.TID 0000.0001)                       0
(PID.TID 0000.0001)     ;
(PID.TID 0000.0001) momForcing =  /* Momentum forcing on/off flag */
(PID.TID 0000.0001)                   T
(PID.TID 0000.0001)     ;
(PID.TID 0000.0001) momPressureForcing =  /* Momentum pressure term on/off flag */
(PID.TID 0000.0001)                   T
(PID.TID 0000.0001)     ;
(PID.TID 0000.0001) implicitIntGravWave= /* Implicit Internal Gravity Wave flag */
(PID.TID 0000.0001)                   F
(PID.TID 0000.0001)     ;
(PID.TID 0000.0001) staggerTimeStep =   /* Stagger time stepping on/off flag */
(PID.TID 0000.0001)                   T
(PID.TID 0000.0001)     ;
(PID.TID 0000.0001) multiDimAdvection =   /* enable/disable Multi-Dim Advection */
(PID.TID 0000.0001)                   T
(PID.TID 0000.0001)     ;
(PID.TID 0000.0001) useMultiDimAdvec =   /* Multi-Dim Advection is/is-not used */
(PID.TID 0000.0001)                   T
(PID.TID 0000.0001)     ;
(PID.TID 0000.0001) implicitDiffusion =/* Implicit Diffusion on/off flag */
(PID.TID 0000.0001)                   T
(PID.TID 0000.0001)     ;
(PID.TID 0000.0001) tempStepping =  /* Temperature equation on/off flag */
(PID.TID 0000.0001)                   T
(PID.TID 0000.0001)     ;
(PID.TID 0000.0001) tempAdvection=  /* Temperature advection on/off flag */
(PID.TID 0000.0001)                   T
(PID.TID 0000.0001)     ;
(PID.TID 0000.0001) tempImplVertAdv =/* Temp. implicit vert. advection on/off */
(PID.TID 0000.0001)                   F
(PID.TID 0000.0001)     ;
(PID.TID 0000.0001) tempForcing  =  /* Temperature forcing on/off flag */
(PID.TID 0000.0001)                   T
(PID.TID 0000.0001)     ;
(PID.TID 0000.0001) tempIsActiveTr = /* Temp. is a dynamically Active Tracer */
(PID.TID 0000.0001)                   T
(PID.TID 0000.0001)     ;
(PID.TID 0000.0001) saltStepping =  /* Salinity equation on/off flag */
(PID.TID 0000.0001)                   T
(PID.TID 0000.0001)     ;
(PID.TID 0000.0001) saltAdvection=  /* Salinity advection on/off flag */
(PID.TID 0000.0001)                   T
(PID.TID 0000.0001)     ;
(PID.TID 0000.0001) saltImplVertAdv =/* Sali. implicit vert. advection on/off */
(PID.TID 0000.0001)                   F
(PID.TID 0000.0001)     ;
(PID.TID 0000.0001) saltForcing  =  /* Salinity forcing on/off flag */
(PID.TID 0000.0001)                   T
(PID.TID 0000.0001)     ;
(PID.TID 0000.0001) saltIsActiveTr = /* Salt  is a dynamically Active Tracer */
(PID.TID 0000.0001)                   T
(PID.TID 0000.0001)     ;
(PID.TID 0000.0001)  readBinaryPrec = /* Precision used for reading binary files */
(PID.TID 0000.0001)                      32
(PID.TID 0000.0001)     ;
(PID.TID 0000.0001) writeBinaryPrec = /* Precision used for writing binary files */
(PID.TID 0000.0001)                      64
(PID.TID 0000.0001)     ;
(PID.TID 0000.0001)  globalFiles = /* write "global" (=not per tile) files */
(PID.TID 0000.0001)                   T
(PID.TID 0000.0001)     ;
(PID.TID 0000.0001)  useSingleCpuIO = /* only master MPI process does I/O */
(PID.TID 0000.0001)                   T
(PID.TID 0000.0001)     ;
(PID.TID 0000.0001)  debugMode  =  /* Debug Mode on/off flag */
(PID.TID 0000.0001)                   F
(PID.TID 0000.0001)     ;
(PID.TID 0000.0001)    debLevA  =  /* 1rst level of debugging */
(PID.TID 0000.0001)                       1
(PID.TID 0000.0001)     ;
(PID.TID 0000.0001)    debLevB  =  /* 2nd  level of debugging */
(PID.TID 0000.0001)                       2
(PID.TID 0000.0001)     ;
(PID.TID 0000.0001)  debugLevel =  /* select debugging level */
(PID.TID 0000.0001)                       1
(PID.TID 0000.0001)     ;
(PID.TID 0000.0001) //
(PID.TID 0000.0001) // Elliptic solver(s) paramters ( PARM02 in namelist )
(PID.TID 0000.0001) //
(PID.TID 0000.0001) cg2dMaxIters =   /* Upper limit on 2d con. grad iterations  */
(PID.TID 0000.0001)                     100
(PID.TID 0000.0001)     ;
(PID.TID 0000.0001) cg2dChkResFreq =   /* 2d con. grad convergence test frequency */
(PID.TID 0000.0001)                       1
(PID.TID 0000.0001)     ;
(PID.TID 0000.0001) cg2dTargetResidual =   /* 2d con. grad target residual  */
(PID.TID 0000.0001)                 1.000000000000000E-05
(PID.TID 0000.0001)     ;
(PID.TID 0000.0001) cg2dTargetResWunit =   /* CG2d target residual [W units] */
(PID.TID 0000.0001)                -1.000000000000000E+00
(PID.TID 0000.0001)     ;
(PID.TID 0000.0001) cg2dPreCondFreq =   /* Freq. for updating cg2d preconditioner */
(PID.TID 0000.0001)                       1
(PID.TID 0000.0001)     ;
(PID.TID 0000.0001) //
(PID.TID 0000.0001) // Time stepping paramters ( PARM03 in namelist )
(PID.TID 0000.0001) //
(PID.TID 0000.0001) deltaTmom =   /* Momentum equation timestep ( s ) */
(PID.TID 0000.0001)                 1.200000000000000E+03
(PID.TID 0000.0001)     ;
(PID.TID 0000.0001) deltaTfreesurf =   /* FreeSurface equation timestep ( s ) */
(PID.TID 0000.0001)                 1.200000000000000E+03
(PID.TID 0000.0001)     ;
(PID.TID 0000.0001) dTtracerLev =   /* Tracer equation timestep ( s ) */
(PID.TID 0000.0001)    24 @  1.200000000000000E+03              /* K =  1: 24 */
(PID.TID 0000.0001)     ;
(PID.TID 0000.0001) deltaTClock  =   /* Model clock timestep ( s ) */
(PID.TID 0000.0001)                 1.200000000000000E+03
(PID.TID 0000.0001)     ;
(PID.TID 0000.0001) cAdjFreq =   /* Convective adjustment interval ( s ) */
(PID.TID 0000.0001)                 0.000000000000000E+00
(PID.TID 0000.0001)     ;
(PID.TID 0000.0001) momForcingOutAB = /* =1: take Momentum Forcing out of Adams-Bash. stepping */
(PID.TID 0000.0001)                       1
(PID.TID 0000.0001)     ;
(PID.TID 0000.0001) tracForcingOutAB = /* =1: take T,S,pTr Forcing out of Adams-Bash. stepping */
(PID.TID 0000.0001)                       1
(PID.TID 0000.0001)     ;
(PID.TID 0000.0001) momDissip_In_AB = /* put Dissipation Tendency in Adams-Bash. stepping */
(PID.TID 0000.0001)                   T
(PID.TID 0000.0001)     ;
(PID.TID 0000.0001) doAB_onGtGs = /* apply AB on Tendencies (rather than on T,S)*/
(PID.TID 0000.0001)                   T
(PID.TID 0000.0001)     ;
(PID.TID 0000.0001) abEps =   /* Adams-Bashforth-2 stabilizing weight */
(PID.TID 0000.0001)                 1.000000000000000E-01
(PID.TID 0000.0001)     ;
(PID.TID 0000.0001) pickupStrictlyMatch= /* stop if pickup do not strictly match */
(PID.TID 0000.0001)                   F
(PID.TID 0000.0001)     ;
(PID.TID 0000.0001) nIter0 =   /* Run starting timestep number  */
(PID.TID 0000.0001)                  188388
(PID.TID 0000.0001)     ;
(PID.TID 0000.0001) nTimeSteps =   /* Number of timesteps */
(PID.TID 0000.0001)                       4
(PID.TID 0000.0001)     ;
(PID.TID 0000.0001) baseTime =   /* Model base time ( s ). */
(PID.TID 0000.0001)                 0.000000000000000E+00
(PID.TID 0000.0001)     ;
(PID.TID 0000.0001) startTime =   /* Run start time ( s ). */
(PID.TID 0000.0001)                 2.260656000000000E+08
(PID.TID 0000.0001)     ;
(PID.TID 0000.0001) endTime =   /* Integration ending time ( s ). */
(PID.TID 0000.0001)                 2.260704000000000E+08
(PID.TID 0000.0001)     ;
(PID.TID 0000.0001) pChkPtFreq =   /* Permanent restart/checkpoint file interval ( s ). */
(PID.TID 0000.0001)                 2.678400000000000E+06
(PID.TID 0000.0001)     ;
(PID.TID 0000.0001) chkPtFreq =   /* Rolling restart/checkpoint file interval ( s ). */
(PID.TID 0000.0001)                 2.592000000000000E+06
(PID.TID 0000.0001)     ;
(PID.TID 0000.0001) pickup_write_mdsio =   /* Model IO flag. */
(PID.TID 0000.0001)                   T
(PID.TID 0000.0001)     ;
(PID.TID 0000.0001) pickup_read_mdsio =   /* Model IO flag. */
(PID.TID 0000.0001)                   T
(PID.TID 0000.0001)     ;
(PID.TID 0000.0001) pickup_write_immed =   /* Model IO flag. */
(PID.TID 0000.0001)                   F
(PID.TID 0000.0001)     ;
(PID.TID 0000.0001) writePickupAtEnd =   /* Model IO flag. */
(PID.TID 0000.0001)                   T
(PID.TID 0000.0001)     ;
(PID.TID 0000.0001) dumpFreq =   /* Model state write out interval ( s ). */
(PID.TID 0000.0001)                 0.000000000000000E+00
(PID.TID 0000.0001)     ;
(PID.TID 0000.0001) dumpInitAndLast= /* write out Initial & Last iter. model state */
(PID.TID 0000.0001)                   F
(PID.TID 0000.0001)     ;
(PID.TID 0000.0001) snapshot_mdsio =   /* Model IO flag. */
(PID.TID 0000.0001)                   T
(PID.TID 0000.0001)     ;
(PID.TID 0000.0001) monitorFreq =   /* Monitor output interval ( s ). */
(PID.TID 0000.0001)                 1.200000000000000E+03
(PID.TID 0000.0001)     ;
(PID.TID 0000.0001) monitorSelect = /* select group of variables to monitor */
(PID.TID 0000.0001)                       3
(PID.TID 0000.0001)     ;
(PID.TID 0000.0001) monitor_stdio =   /* Model IO flag. */
(PID.TID 0000.0001)                   T
(PID.TID 0000.0001)     ;
(PID.TID 0000.0001) externForcingPeriod =   /* forcing period (s) */
(PID.TID 0000.0001)                 0.000000000000000E+00
(PID.TID 0000.0001)     ;
(PID.TID 0000.0001) externForcingCycle =   /* period of the cyle (s). */
(PID.TID 0000.0001)                 0.000000000000000E+00
(PID.TID 0000.0001)     ;
(PID.TID 0000.0001) tauThetaClimRelax =   /* relaxation time scale (s) */
(PID.TID 0000.0001)                 0.000000000000000E+00
(PID.TID 0000.0001)     ;
(PID.TID 0000.0001) tauSaltClimRelax =   /* relaxation time scale (s) */
(PID.TID 0000.0001)                 8.722203000000000E+06
(PID.TID 0000.0001)     ;
(PID.TID 0000.0001) latBandClimRelax =   /* max. Lat. where relaxation */
(PID.TID 0000.0001)                 1.800000000000000E+02
(PID.TID 0000.0001)     ;
(PID.TID 0000.0001) //
(PID.TID 0000.0001) // Gridding paramters ( PARM04 in namelist )
(PID.TID 0000.0001) //
(PID.TID 0000.0001) usingCartesianGrid = /* Cartesian coordinates flag ( True/False ) */
(PID.TID 0000.0001)                   F
(PID.TID 0000.0001)     ;
(PID.TID 0000.0001) usingCylindricalGrid = /* Cylindrical coordinates flag ( True/False ) */
(PID.TID 0000.0001)                   F
(PID.TID 0000.0001)     ;
(PID.TID 0000.0001) usingSphericalPolarGrid = /* Spherical coordinates flag ( True/False ) */
(PID.TID 0000.0001)                   F
(PID.TID 0000.0001)     ;
(PID.TID 0000.0001) usingCurvilinearGrid = /* Curvilinear coordinates flag ( True/False ) */
(PID.TID 0000.0001)                   T
(PID.TID 0000.0001)     ;
(PID.TID 0000.0001) Ro_SeaLevel = /* r(1) ( units of r ==  m ) */
(PID.TID 0000.0001)                 0.000000000000000E+00
(PID.TID 0000.0001)     ;
(PID.TID 0000.0001) rkSign =   /* index orientation relative to vertical coordinate */
(PID.TID 0000.0001)                -1.000000000000000E+00
(PID.TID 0000.0001)     ;
(PID.TID 0000.0001) gravitySign = /* gravity orientation relative to vertical coordinate */
(PID.TID 0000.0001)                -1.000000000000000E+00
(PID.TID 0000.0001)     ;
(PID.TID 0000.0001) mass2rUnit = /* convert mass per unit area [kg/m2] to r-units [m] */
(PID.TID 0000.0001)                 9.732360097323601E-04
(PID.TID 0000.0001)     ;
(PID.TID 0000.0001) rUnit2mass = /* convert r-units [m] to mass per unit area [kg/m2] */
(PID.TID 0000.0001)                 1.027500000000000E+03
(PID.TID 0000.0001)     ;
(PID.TID 0000.0001) drC =   /* C spacing ( units of r ) */
(PID.TID 0000.0001)                 5.000000000000000E+00,      /* K =  1 */
(PID.TID 0000.0001)     6 @  1.000000000000000E+01,             /* K =  2:  7 */
(PID.TID 0000.0001)                 1.000500000000000E+01,      /* K =  8 */
(PID.TID 0000.0001)                 1.002000000000000E+01,      /* K =  9 */
(PID.TID 0000.0001)                 1.007000000000000E+01,      /* K = 10 */
(PID.TID 0000.0001)                 1.021500000000000E+01,      /* K = 11 */
(PID.TID 0000.0001)                 1.056000000000000E+01,      /* K = 12 */
(PID.TID 0000.0001)                 1.128000000000000E+01,      /* K = 13 */
(PID.TID 0000.0001)                 1.259000000000000E+01,      /* K = 14 */
(PID.TID 0000.0001)                 1.473000000000000E+01,      /* K = 15 */
(PID.TID 0000.0001)                 1.793000000000000E+01,      /* K = 16 */
(PID.TID 0000.0001)                 2.233500000000000E+01,      /* K = 17 */
(PID.TID 0000.0001)                 2.797500000000000E+01,      /* K = 18 */
(PID.TID 0000.0001)                 3.476000000000001E+01,      /* K = 19 */
(PID.TID 0000.0001)                 4.246000000000000E+01,      /* K = 20 */
(PID.TID 0000.0001)                 5.075000000000000E+01,      /* K = 21 */
(PID.TID 0000.0001)                 5.925000000000000E+01,      /* K = 22 */
(PID.TID 0000.0001)                 6.753999999999999E+01,      /* K = 23 */
(PID.TID 0000.0001)                 7.524000000000001E+01       /* K = 24 */
(PID.TID 0000.0001)     ;
(PID.TID 0000.0001) drF =   /* W spacing ( units of r ) */
(PID.TID 0000.0001)     7 @  1.000000000000000E+01,             /* K =  1:  7 */
(PID.TID 0000.0001)                 1.001000000000000E+01,      /* K =  8 */
(PID.TID 0000.0001)                 1.003000000000000E+01,      /* K =  9 */
(PID.TID 0000.0001)                 1.011000000000000E+01,      /* K = 10 */
(PID.TID 0000.0001)                 1.032000000000000E+01,      /* K = 11 */
(PID.TID 0000.0001)                 1.080000000000000E+01,      /* K = 12 */
(PID.TID 0000.0001)                 1.176000000000000E+01,      /* K = 13 */
(PID.TID 0000.0001)                 1.342000000000000E+01,      /* K = 14 */
(PID.TID 0000.0001)                 1.604000000000000E+01,      /* K = 15 */
(PID.TID 0000.0001)                 1.982000000000000E+01,      /* K = 16 */
(PID.TID 0000.0001)                 2.485000000000000E+01,      /* K = 17 */
(PID.TID 0000.0001)                 3.110000000000000E+01,      /* K = 18 */
(PID.TID 0000.0001)                 3.842000000000000E+01,      /* K = 19 */
(PID.TID 0000.0001)                 4.650000000000000E+01,      /* K = 20 */
(PID.TID 0000.0001)                 5.500000000000000E+01,      /* K = 21 */
(PID.TID 0000.0001)                 6.350000000000000E+01,      /* K = 22 */
(PID.TID 0000.0001)                 7.158000000000000E+01,      /* K = 23 */
(PID.TID 0000.0001)                 7.890000000000001E+01       /* K = 24 */
(PID.TID 0000.0001)     ;
(PID.TID 0000.0001) delX =   /* U spacing ( m - cartesian, degrees - spherical ) */
(PID.TID 0000.0001)    76 @  1.234567000000000E+05              /* I =  1: 76 */
(PID.TID 0000.0001)     ;
(PID.TID 0000.0001) delY =   /* V spacing ( m - cartesian, degrees - spherical ) */
(PID.TID 0000.0001)    72 @  1.234567000000000E+05              /* J =  1: 72 */
(PID.TID 0000.0001)     ;
(PID.TID 0000.0001) xgOrigin = /* X-axis origin of West  edge (cartesian: m, lat-lon: deg.) */
(PID.TID 0000.0001)                 0.000000000000000E+00
(PID.TID 0000.0001)     ;
(PID.TID 0000.0001) ygOrigin = /* Y-axis origin of South edge (cartesian: m, lat-lon: deg.) */
(PID.TID 0000.0001)                 0.000000000000000E+00
(PID.TID 0000.0001)     ;
(PID.TID 0000.0001) rSphere =  /* Radius ( ignored - cartesian, m - spherical ) */
(PID.TID 0000.0001)                 6.370000000000000E+06
(PID.TID 0000.0001)     ;
(PID.TID 0000.0001) deepAtmosphere = /* Deep/Shallow Atmosphere flag (True/False) */
(PID.TID 0000.0001)                   F
(PID.TID 0000.0001)     ;
(PID.TID 0000.0001) xcoord =   /* P-point X coord ( m - cartesian, degrees - spherical ) */
(PID.TID 0000.0001)                 2.302801132202148E+01,      /* I =  1 */
(PID.TID 0000.0001)                 2.313455772399902E+01,      /* I =  2 */
(PID.TID 0000.0001)                 2.324206161499023E+01,      /* I =  3 */
(PID.TID 0000.0001)                 2.335052871704102E+01,      /* I =  4 */
(PID.TID 0000.0001)                 2.345996856689453E+01,      /* I =  5 */
(PID.TID 0000.0001)                 2.357038497924805E+01,      /* I =  6 */
(PID.TID 0000.0001)                 2.368178939819336E+01,      /* I =  7 */
(PID.TID 0000.0001)                 2.379418563842773E+01,      /* I =  8 */
(PID.TID 0000.0001)                 2.390758323669434E+01,      /* I =  9 */
(PID.TID 0000.0001)                 2.402198982238770E+01,      /* I = 10 */
(PID.TID 0000.0001)                 2.413741302490234E+01,      /* I = 11 */
(PID.TID 0000.0001)                 2.425385856628418E+01,      /* I = 12 */
(PID.TID 0000.0001)                 2.437133789062500E+01,      /* I = 13 */
(PID.TID 0000.0001)                 2.448985862731934E+01,      /* I = 14 */
(PID.TID 0000.0001)                 2.460942840576172E+01,      /* I = 15 */
(PID.TID 0000.0001)                 2.473005485534668E+01,      /* I = 16 */
(PID.TID 0000.0001)                 2.485174751281738E+01,      /* I = 17 */
(PID.TID 0000.0001)                 2.497451591491699E+01,      /* I = 18 */
(PID.TID 0000.0001)                 2.509836769104004E+01,      /* I = 19 */
(PID.TID 0000.0001)                 2.522331237792969E+01,      /* I = 20 */
(PID.TID 0000.0001)                 2.534935951232910E+01,      /* I = 21 */
(PID.TID 0000.0001)                 2.547651863098145E+01,      /* I = 22 */
(PID.TID 0000.0001)                 2.560479736328125E+01,      /* I = 23 */
(PID.TID 0000.0001)                 2.573420906066895E+01,      /* I = 24 */
(PID.TID 0000.0001)                 2.586476135253906E+01,      /* I = 25 */
(PID.TID 0000.0001)                 2.599646377563477E+01,      /* I = 26 */
(PID.TID 0000.0001)                 2.612932777404785E+01,      /* I = 27 */
(PID.TID 0000.0001)                 2.626336288452148E+01,      /* I = 28 */
(PID.TID 0000.0001)                 2.639857864379883E+01,      /* I = 29 */
(PID.TID 0000.0001)                 2.653498840332031E+01,      /* I = 30 */
(PID.TID 0000.0001)                 2.667260169982910E+01,      /* I = 31 */
(PID.TID 0000.0001)                 2.681142807006836E+01,      /* I = 32 */
(PID.TID 0000.0001)                 2.695148086547852E+01,      /* I = 33 */
(PID.TID 0000.0001)                 2.709276962280273E+01,      /* I = 34 */
(PID.TID 0000.0001)                 2.723530769348145E+01,      /* I = 35 */
(PID.TID 0000.0001)                 2.737910652160645E+01,      /* I = 36 */
(PID.TID 0000.0001)                 2.752417564392090E+01,      /* I = 37 */
(PID.TID 0000.0001)                 2.767053031921387E+01,      /* I = 38 */
(PID.TID 0000.0001)                 2.781818008422852E+01,      /* I = 39 */
(PID.TID 0000.0001)                 2.796714019775391E+01,      /* I = 40 */
(PID.TID 0000.0001)                 2.811742019653320E+01,      /* I = 41 */
(PID.TID 0000.0001)                 2.826903724670410E+01,      /* I = 42 */
(PID.TID 0000.0001)                 2.842199897766113E+01,      /* I = 43 */
(PID.TID 0000.0001)                 2.857632255554199E+01,      /* I = 44 */
(PID.TID 0000.0001)                 2.873201942443848E+01,      /* I = 45 */
(PID.TID 0000.0001)                 2.888910484313965E+01,      /* I = 46 */
(PID.TID 0000.0001)                 2.904759216308594E+01,      /* I = 47 */
(PID.TID 0000.0001)                 2.920749473571777E+01,      /* I = 48 */
(PID.TID 0000.0001)                 2.936882591247559E+01,      /* I = 49 */
(PID.TID 0000.0001)                 2.953160285949707E+01,      /* I = 50 */
(PID.TID 0000.0001)                 2.969583702087402E+01,      /* I = 51 */
(PID.TID 0000.0001)                 2.986154556274414E+01,      /* I = 52 */
(PID.TID 0000.0001)                 3.002874374389648E+01,      /* I = 53 */
(PID.TID 0000.0001)                 3.019744682312012E+01,      /* I = 54 */
(PID.TID 0000.0001)                 3.036766815185547E+01,      /* I = 55 */
(PID.TID 0000.0001)                 3.053942489624023E+01,      /* I = 56 */
(PID.TID 0000.0001)                 3.071273422241211E+01,      /* I = 57 */
(PID.TID 0000.0001)                 3.088761138916016E+01,      /* I = 58 */
(PID.TID 0000.0001)                 3.106407165527344E+01,      /* I = 59 */
(PID.TID 0000.0001)                 3.124213218688965E+01,      /* I = 60 */
(PID.TID 0000.0001)                 3.142181205749512E+01,      /* I = 61 */
(PID.TID 0000.0001)                 3.160312461853027E+01,      /* I = 62 */
(PID.TID 0000.0001)                 3.178608894348145E+01,      /* I = 63 */
(PID.TID 0000.0001)                 3.197072410583496E+01,      /* I = 64 */
(PID.TID 0000.0001)                 3.215704727172852E+01,      /* I = 65 */
(PID.TID 0000.0001)                 3.234507369995117E+01,      /* I = 66 */
(PID.TID 0000.0001)                 3.253482437133789E+01,      /* I = 67 */
(PID.TID 0000.0001)                 3.272631835937500E+01,      /* I = 68 */
(PID.TID 0000.0001)                 3.291957092285156E+01,      /* I = 69 */
(PID.TID 0000.0001)                 3.311460494995117E+01,      /* I = 70 */
(PID.TID 0000.0001)                 3.331143951416016E+01,      /* I = 71 */
(PID.TID 0000.0001)                 3.351008987426758E+01,      /* I = 72 */
(PID.TID 0000.0001)                 3.371057891845703E+01,      /* I = 73 */
(PID.TID 0000.0001)                 3.391292953491211E+01,      /* I = 74 */
(PID.TID 0000.0001)                 3.411715316772461E+01,      /* I = 75 */
(PID.TID 0000.0001)                 3.432328033447266E+01       /* I = 76 */
(PID.TID 0000.0001)     ;
(PID.TID 0000.0001) ycoord =   /* P-point Y coord ( m - cartesian, degrees - spherical ) */
(PID.TID 0000.0001)                 5.149615097045898E+01,      /* J =  1 */
(PID.TID 0000.0001)                 5.154657363891602E+01,      /* J =  2 */
(PID.TID 0000.0001)                 5.159649658203125E+01,      /* J =  3 */
(PID.TID 0000.0001)                 5.164592361450195E+01,      /* J =  4 */
(PID.TID 0000.0001)                 5.169485092163086E+01,      /* J =  5 */
(PID.TID 0000.0001)                 5.174327850341797E+01,      /* J =  6 */
(PID.TID 0000.0001)                 5.179120635986328E+01,      /* J =  7 */
(PID.TID 0000.0001)                 5.183863449096680E+01,      /* J =  8 */
(PID.TID 0000.0001)                 5.188555908203125E+01,      /* J =  9 */
(PID.TID 0000.0001)                 5.193198394775391E+01,      /* J = 10 */
(PID.TID 0000.0001)                 5.197790527343750E+01,      /* J = 11 */
(PID.TID 0000.0001)                 5.202331924438477E+01,      /* J = 12 */
(PID.TID 0000.0001)                 5.206823348999023E+01,      /* J = 13 */
(PID.TID 0000.0001)                 5.211264038085938E+01,      /* J = 14 */
(PID.TID 0000.0001)                 5.215653991699219E+01,      /* J = 15 */
(PID.TID 0000.0001)                 5.219993209838867E+01,      /* J = 16 */
(PID.TID 0000.0001)                 5.224282073974609E+01,      /* J = 17 */
(PID.TID 0000.0001)                 5.228519821166992E+01,      /* J = 18 */
(PID.TID 0000.0001)                 5.232706832885742E+01,      /* J = 19 */
(PID.TID 0000.0001)                 5.236842727661133E+01,      /* J = 20 */
(PID.TID 0000.0001)                 5.240927505493164E+01,      /* J = 21 */
(PID.TID 0000.0001)                 5.244961547851563E+01,      /* J = 22 */
(PID.TID 0000.0001)                 5.248944091796875E+01,      /* J = 23 */
(PID.TID 0000.0001)                 5.252875518798828E+01,      /* J = 24 */
(PID.TID 0000.0001)                 5.256755447387695E+01,      /* J = 25 */
(PID.TID 0000.0001)                 5.260584259033203E+01,      /* J = 26 */
(PID.TID 0000.0001)                 5.264361572265625E+01,      /* J = 27 */
(PID.TID 0000.0001)                 5.268087005615234E+01,      /* J = 28 */
(PID.TID 0000.0001)                 5.271761322021484E+01,      /* J = 29 */
(PID.TID 0000.0001)                 5.275383758544922E+01,      /* J = 30 */
(PID.TID 0000.0001)                 5.278954696655273E+01,      /* J = 31 */
(PID.TID 0000.0001)                 5.282473373413086E+01,      /* J = 32 */
(PID.TID 0000.0001)                 5.285940551757813E+01,      /* J = 33 */
(PID.TID 0000.0001)                 5.289355850219727E+01,      /* J = 34 */
(PID.TID 0000.0001)                 5.292719268798828E+01,      /* J = 35 */
(PID.TID 0000.0001)                 5.296030426025391E+01,      /* J = 36 */
(PID.TID 0000.0001)                 5.299289321899414E+01,      /* J = 37 */
(PID.TID 0000.0001)                 5.302496337890625E+01,      /* J = 38 */
(PID.TID 0000.0001)                 5.305651092529297E+01,      /* J = 39 */
(PID.TID 0000.0001)                 5.308753585815430E+01,      /* J = 40 */
(PID.TID 0000.0001)                 5.311803817749023E+01,      /* J = 41 */
(PID.TID 0000.0001)                 5.314801788330078E+01,      /* J = 42 */
(PID.TID 0000.0001)                 5.317747116088867E+01,      /* J = 43 */
(PID.TID 0000.0001)                 5.320639801025391E+01,      /* J = 44 */
(PID.TID 0000.0001)                 5.323480224609375E+01,      /* J = 45 */
(PID.TID 0000.0001)                 5.326267623901367E+01,      /* J = 46 */
(PID.TID 0000.0001)                 5.329002761840820E+01,      /* J = 47 */
(PID.TID 0000.0001)                 5.331684875488281E+01,      /* J = 48 */
(PID.TID 0000.0001)                 5.334314346313477E+01,      /* J = 49 */
(PID.TID 0000.0001)                 5.336891174316406E+01,      /* J = 50 */
(PID.TID 0000.0001)                 5.339414978027344E+01,      /* J = 51 */
(PID.TID 0000.0001)                 5.341885757446289E+01,      /* J = 52 */
(PID.TID 0000.0001)                 5.344303512573242E+01,      /* J = 53 */
(PID.TID 0000.0001)                 5.346668624877930E+01,      /* J = 54 */
(PID.TID 0000.0001)                 5.348980331420898E+01,      /* J = 55 */
(PID.TID 0000.0001)                 5.351239013671875E+01,      /* J = 56 */
(PID.TID 0000.0001)                 5.353444671630859E+01,      /* J = 57 */
(PID.TID 0000.0001)                 5.355596923828125E+01,      /* J = 58 */
(PID.TID 0000.0001)                 5.357696151733398E+01,      /* J = 59 */
(PID.TID 0000.0001)                 5.359741973876953E+01,      /* J = 60 */
(PID.TID 0000.0001)                 5.361734390258789E+01,      /* J = 61 */
(PID.TID 0000.0001)                 5.363673400878906E+01,      /* J = 62 */
(PID.TID 0000.0001)                 5.365559387207031E+01,      /* J = 63 */
(PID.TID 0000.0001)                 5.367391586303711E+01,      /* J = 64 */
(PID.TID 0000.0001)                 5.369170379638672E+01,      /* J = 65 */
(PID.TID 0000.0001)                 5.370895767211914E+01,      /* J = 66 */
(PID.TID 0000.0001)                 5.372567367553711E+01,      /* J = 67 */
(PID.TID 0000.0001)                 5.374185562133789E+01,      /* J = 68 */
(PID.TID 0000.0001)                 5.375749969482422E+01,      /* J = 69 */
(PID.TID 0000.0001)                 5.377260971069336E+01,      /* J = 70 */
(PID.TID 0000.0001)                 5.378718185424805E+01,      /* J = 71 */
(PID.TID 0000.0001)                 5.380121612548828E+01       /* J = 72 */
(PID.TID 0000.0001)     ;
(PID.TID 0000.0001) rcoord =   /* P-point R coordinate (  units of r ) */
(PID.TID 0000.0001)                -5.000000000000000E+00,      /* K =  1 */
(PID.TID 0000.0001)                -1.500000000000000E+01,      /* K =  2 */
(PID.TID 0000.0001)                -2.500000000000000E+01,      /* K =  3 */
(PID.TID 0000.0001)                -3.500000000000000E+01,      /* K =  4 */
(PID.TID 0000.0001)                -4.500000000000000E+01,      /* K =  5 */
(PID.TID 0000.0001)                -5.500000000000000E+01,      /* K =  6 */
(PID.TID 0000.0001)                -6.500000000000000E+01,      /* K =  7 */
(PID.TID 0000.0001)                -7.500500000000000E+01,      /* K =  8 */
(PID.TID 0000.0001)                -8.502499999999999E+01,      /* K =  9 */
(PID.TID 0000.0001)                -9.509500000000000E+01,      /* K = 10 */
(PID.TID 0000.0001)                -1.053100000000000E+02,      /* K = 11 */
(PID.TID 0000.0001)                -1.158700000000000E+02,      /* K = 12 */
(PID.TID 0000.0001)                -1.271500000000000E+02,      /* K = 13 */
(PID.TID 0000.0001)                -1.397400000000000E+02,      /* K = 14 */
(PID.TID 0000.0001)                -1.544700000000000E+02,      /* K = 15 */
(PID.TID 0000.0001)                -1.724000000000000E+02,      /* K = 16 */
(PID.TID 0000.0001)                -1.947350000000000E+02,      /* K = 17 */
(PID.TID 0000.0001)                -2.227100000000000E+02,      /* K = 18 */
(PID.TID 0000.0001)                -2.574700000000000E+02,      /* K = 19 */
(PID.TID 0000.0001)                -2.999300000000000E+02,      /* K = 20 */
(PID.TID 0000.0001)                -3.506800000000000E+02,      /* K = 21 */
(PID.TID 0000.0001)                -4.099300000000000E+02,      /* K = 22 */
(PID.TID 0000.0001)                -4.774700000000000E+02,      /* K = 23 */
(PID.TID 0000.0001)                -5.527100000000000E+02       /* K = 24 */
(PID.TID 0000.0001)     ;
(PID.TID 0000.0001) rF =   /* W-Interf. R coordinate (  units of r ) */
(PID.TID 0000.0001)                 0.000000000000000E+00,      /* K =  1 */
(PID.TID 0000.0001)                -1.000000000000000E+01,      /* K =  2 */
(PID.TID 0000.0001)                -2.000000000000000E+01,      /* K =  3 */
(PID.TID 0000.0001)                -3.000000000000000E+01,      /* K =  4 */
(PID.TID 0000.0001)                -4.000000000000000E+01,      /* K =  5 */
(PID.TID 0000.0001)                -5.000000000000000E+01,      /* K =  6 */
(PID.TID 0000.0001)                -6.000000000000000E+01,      /* K =  7 */
(PID.TID 0000.0001)                -7.000000000000000E+01,      /* K =  8 */
(PID.TID 0000.0001)                -8.001000000000001E+01,      /* K =  9 */
(PID.TID 0000.0001)                -9.004000000000001E+01,      /* K = 10 */
(PID.TID 0000.0001)                -1.001500000000000E+02,      /* K = 11 */
(PID.TID 0000.0001)                -1.104700000000000E+02,      /* K = 12 */
(PID.TID 0000.0001)                -1.212700000000000E+02,      /* K = 13 */
(PID.TID 0000.0001)                -1.330300000000000E+02,      /* K = 14 */
(PID.TID 0000.0001)                -1.464500000000000E+02,      /* K = 15 */
(PID.TID 0000.0001)                -1.624900000000000E+02,      /* K = 16 */
(PID.TID 0000.0001)                -1.823100000000000E+02,      /* K = 17 */
(PID.TID 0000.0001)                -2.071600000000000E+02,      /* K = 18 */
(PID.TID 0000.0001)                -2.382600000000000E+02,      /* K = 19 */
(PID.TID 0000.0001)                -2.766799999999999E+02,      /* K = 20 */
(PID.TID 0000.0001)                -3.231799999999999E+02,      /* K = 21 */
(PID.TID 0000.0001)                -3.781799999999999E+02,      /* K = 22 */
(PID.TID 0000.0001)                -4.416799999999999E+02,      /* K = 23 */
(PID.TID 0000.0001)                -5.132600000000000E+02,      /* K = 24 */
(PID.TID 0000.0001)                -5.921600000000000E+02       /* K = 25 */
(PID.TID 0000.0001)     ;
(PID.TID 0000.0001) deepFacC = /* deep-model grid factor @ cell-Center (-) */
(PID.TID 0000.0001)    24 @  1.000000000000000E+00              /* K =  1: 24 */
(PID.TID 0000.0001)     ;
(PID.TID 0000.0001) deepFacF = /* deep-model grid factor @ W-Interface (-) */
(PID.TID 0000.0001)    25 @  1.000000000000000E+00              /* K =  1: 25 */
(PID.TID 0000.0001)     ;
(PID.TID 0000.0001) rVel2wUnit = /* convert units: rVel -> wSpeed (=1 if z-coord)*/
(PID.TID 0000.0001)    25 @  1.000000000000000E+00              /* K =  1: 25 */
(PID.TID 0000.0001)     ;
(PID.TID 0000.0001) wUnit2rVel = /* convert units: wSpeed -> rVel (=1 if z-coord)*/
(PID.TID 0000.0001)    25 @  1.000000000000000E+00              /* K =  1: 25 */
(PID.TID 0000.0001)     ;
(PID.TID 0000.0001) dBdrRef = /* Vertical gradient of reference boyancy [(m/s/r)^2)] */
(PID.TID 0000.0001)     3 @  0.000000000000000E+00,             /* K =  1:  3 */
(PID.TID 0000.0001)                 2.710009878211941E-04,      /* K =  4 */
(PID.TID 0000.0001)     2 @  0.000000000000000E+00,             /* K =  5:  6 */
(PID.TID 0000.0001)                 2.636625418269014E-04,      /* K =  7 */
(PID.TID 0000.0001)                 2.558031727841269E-04,      /* K =  8 */
(PID.TID 0000.0001)                 0.000000000000000E+00,      /* K =  9 */
(PID.TID 0000.0001)                 2.465097609409217E-04,      /* K = 10 */
(PID.TID 0000.0001)                 2.352100435611475E-04,      /* K = 11 */
(PID.TID 0000.0001)                 0.000000000000000E+00,      /* K = 12 */
(PID.TID 0000.0001)                 2.059824810681317E-04,      /* K = 13 */
(PID.TID 0000.0001)                 1.780333657351851E-04,      /* K = 14 */
(PID.TID 0000.0001)                 0.000000000000000E+00,      /* K = 15 */
(PID.TID 0000.0001)                 1.205267729858628E-04,      /* K = 16 */
(PID.TID 0000.0001)                 9.301885331159507E-05,      /* K = 17 */
(PID.TID 0000.0001)                 7.126049663232381E-05,      /* K = 18 */
(PID.TID 0000.0001)                 5.492180008088694E-05,      /* K = 19 */
(PID.TID 0000.0001)                 4.297011162312342E-05,      /* K = 20 */
(PID.TID 0000.0001)                 6.668082313416848E-05,      /* K = 21 */
(PID.TID 0000.0001)                 0.000000000000000E+00,      /* K = 22 */
(PID.TID 0000.0001)                 2.326903218052740E-05,      /* K = 23 */
(PID.TID 0000.0001)                 1.977341620137575E-05       /* K = 24 */
(PID.TID 0000.0001)     ;
(PID.TID 0000.0001) rotateGrid = /* use rotated grid ( True/False ) */
(PID.TID 0000.0001)                   F
(PID.TID 0000.0001)     ;
(PID.TID 0000.0001) phiEuler = /* Euler angle, rotation about original z-coordinate [rad] */
(PID.TID 0000.0001)                 0.000000000000000E+00
(PID.TID 0000.0001)     ;
(PID.TID 0000.0001) thetaEuler = /* Euler angle, rotation about new x-coordinate [rad] */
(PID.TID 0000.0001)                 0.000000000000000E+00
(PID.TID 0000.0001)     ;
(PID.TID 0000.0001) psiEuler = /* Euler angle, rotation about new z-coordinate [rad] */
(PID.TID 0000.0001)                 0.000000000000000E+00
(PID.TID 0000.0001)     ;
(PID.TID 0000.0001) dxF =  /* dxF(:,1,:,1) ( units: m ) */
(PID.TID 0000.0001)                 2.139819531250000E+04,      /* I =  1 */
(PID.TID 0000.0001)                 2.134052929687500E+04,      /* I =  2 */
(PID.TID 0000.0001)                 2.128357812500000E+04,      /* I =  3 */
(PID.TID 0000.0001)                 2.122733007812500E+04,      /* I =  4 */
(PID.TID 0000.0001)                 2.117177539062500E+04,      /* I =  5 */
(PID.TID 0000.0001)                 2.111690234375000E+04,      /* I =  6 */
(PID.TID 0000.0001)                 2.106269921875000E+04,      /* I =  7 */
(PID.TID 0000.0001)                 2.100915820312500E+04,      /* I =  8 */
(PID.TID 0000.0001)                 2.095626562500000E+04,      /* I =  9 */
(PID.TID 0000.0001)                 2.090401171875000E+04,      /* I = 10 */
(PID.TID 0000.0001)                 2.085238867187500E+04,      /* I = 11 */
(PID.TID 0000.0001)                 2.080138476562500E+04,      /* I = 12 */
(PID.TID 0000.0001)                 2.075099023437500E+04,      /* I = 13 */
(PID.TID 0000.0001)                 2.070119726562500E+04,      /* I = 14 */
(PID.TID 0000.0001)                 2.065199414062500E+04,      /* I = 15 */
(PID.TID 0000.0001)                 2.060337304687500E+04,      /* I = 16 */
(PID.TID 0000.0001)                 2.055532617187500E+04,      /* I = 17 */
(PID.TID 0000.0001)                 2.050784179687500E+04,      /* I = 18 */
(PID.TID 0000.0001)                 2.046091406250000E+04,      /* I = 19 */
(PID.TID 0000.0001)                 2.041453515625000E+04,      /* I = 20 */
(PID.TID 0000.0001)                 2.036869335937500E+04,      /* I = 21 */
(PID.TID 0000.0001)                 2.032338281250000E+04,      /* I = 22 */
(PID.TID 0000.0001)                 2.027859570312500E+04,      /* I = 23 */
(PID.TID 0000.0001)                 2.023432226562500E+04,      /* I = 24 */
(PID.TID 0000.0001)                 2.019055859375000E+04,      /* I = 25 */
(PID.TID 0000.0001)                 2.014729296875000E+04,      /* I = 26 */
(PID.TID 0000.0001)                 2.010452148437500E+04,      /* I = 27 */
(PID.TID 0000.0001)                 2.006223632812500E+04,      /* I = 28 */
(PID.TID 0000.0001)                 2.002042773437500E+04,      /* I = 29 */
(PID.TID 0000.0001)                 1.997909179687500E+04,      /* I = 30 */
(PID.TID 0000.0001)                 1.993822265625000E+04,      /* I = 31 */
(PID.TID 0000.0001)                 1.989780859375000E+04,      /* I = 32 */
(PID.TID 0000.0001)                 1.985784765625000E+04,      /* I = 33 */
(PID.TID 0000.0001)                 1.981833398437500E+04,      /* I = 34 */
(PID.TID 0000.0001)                 1.977925781250000E+04,      /* I = 35 */
(PID.TID 0000.0001)                 1.974061523437500E+04,      /* I = 36 */
(PID.TID 0000.0001)                 1.970239843750000E+04,      /* I = 37 */
(PID.TID 0000.0001)                 1.966460546875000E+04,      /* I = 38 */
(PID.TID 0000.0001)                 1.962722656250000E+04,      /* I = 39 */
(PID.TID 0000.0001)                 1.959025781250000E+04,      /* I = 40 */
(PID.TID 0000.0001)                 1.955369531250000E+04,      /* I = 41 */
(PID.TID 0000.0001)                 1.951752929687500E+04,      /* I = 42 */
(PID.TID 0000.0001)                 1.948175976562500E+04,      /* I = 43 */
(PID.TID 0000.0001)                 1.944637695312500E+04,      /* I = 44 */
(PID.TID 0000.0001)                 1.941137890625000E+04,      /* I = 45 */
(PID.TID 0000.0001)                 1.937675976562500E+04,      /* I = 46 */
(PID.TID 0000.0001)                 1.934251367187500E+04,      /* I = 47 */
(PID.TID 0000.0001)                 1.930863671875000E+04,      /* I = 48 */
(PID.TID 0000.0001)                 1.927512500000000E+04,      /* I = 49 */
(PID.TID 0000.0001)                 1.924197265625000E+04,      /* I = 50 */
(PID.TID 0000.0001)                 1.920917578125000E+04,      /* I = 51 */
(PID.TID 0000.0001)                 1.917673046875000E+04,      /* I = 52 */
(PID.TID 0000.0001)                 1.914463085937500E+04,      /* I = 53 */
(PID.TID 0000.0001)                 1.911287500000000E+04,      /* I = 54 */
(PID.TID 0000.0001)                 1.908145703125000E+04,      /* I = 55 */
(PID.TID 0000.0001)                 1.905037304687500E+04,      /* I = 56 */
(PID.TID 0000.0001)                 1.901961914062500E+04,      /* I = 57 */
(PID.TID 0000.0001)                 1.898919335937500E+04,      /* I = 58 */
(PID.TID 0000.0001)                 1.895908984375000E+04,      /* I = 59 */
(PID.TID 0000.0001)                 1.892930468750000E+04,      /* I = 60 */
(PID.TID 0000.0001)                 1.889983593750000E+04,      /* I = 61 */
(PID.TID 0000.0001)                 1.887067773437500E+04,      /* I = 62 */
(PID.TID 0000.0001)                 1.884182812500000E+04,      /* I = 63 */
(PID.TID 0000.0001)                 1.881328515625000E+04,      /* I = 64 */
(PID.TID 0000.0001)                 1.878504101562500E+04,      /* I = 65 */
(PID.TID 0000.0001)                 1.875709765625000E+04,      /* I = 66 */
(PID.TID 0000.0001)                 1.872944921875000E+04,      /* I = 67 */
(PID.TID 0000.0001)                 1.870209179687500E+04,      /* I = 68 */
(PID.TID 0000.0001)                 1.867502343750000E+04,      /* I = 69 */
(PID.TID 0000.0001)                 1.864824023437500E+04,      /* I = 70 */
(PID.TID 0000.0001)                 1.862174023437500E+04,      /* I = 71 */
(PID.TID 0000.0001)                 1.859552148437500E+04,      /* I = 72 */
(PID.TID 0000.0001)                 1.856957812500000E+04,      /* I = 73 */
(PID.TID 0000.0001)                 1.854391015625000E+04,      /* I = 74 */
(PID.TID 0000.0001)                 1.851851367187500E+04,      /* I = 75 */
(PID.TID 0000.0001)                 1.849338671875000E+04       /* I = 76 */
(PID.TID 0000.0001)     ;
(PID.TID 0000.0001) dxF =  /* dxF(1,:,1,:) ( units: m ) */
(PID.TID 0000.0001)                 2.139819531250000E+04,      /* J =  1 */
(PID.TID 0000.0001)                 2.142048632812500E+04,      /* J =  2 */
(PID.TID 0000.0001)                 2.144250976562500E+04,      /* J =  3 */
(PID.TID 0000.0001)                 2.146426757812500E+04,      /* J =  4 */
(PID.TID 0000.0001)                 2.148576171875000E+04,      /* J =  5 */
(PID.TID 0000.0001)                 2.150699218750000E+04,      /* J =  6 */
(PID.TID 0000.0001)                 2.152796093750000E+04,      /* J =  7 */
(PID.TID 0000.0001)                 2.154866992187500E+04,      /* J =  8 */
(PID.TID 0000.0001)                 2.156911718750000E+04,      /* J =  9 */
(PID.TID 0000.0001)                 2.158930664062500E+04,      /* J = 10 */
(PID.TID 0000.0001)                 2.160923828125000E+04,      /* J = 11 */
(PID.TID 0000.0001)                 2.162891210937500E+04,      /* J = 12 */
(PID.TID 0000.0001)                 2.164833203125000E+04,      /* J = 13 */
(PID.TID 0000.0001)                 2.166749609375000E+04,      /* J = 14 */
(PID.TID 0000.0001)                 2.168640820312500E+04,      /* J = 15 */
(PID.TID 0000.0001)                 2.170506640625000E+04,      /* J = 16 */
(PID.TID 0000.0001)                 2.172347265625000E+04,      /* J = 17 */
(PID.TID 0000.0001)                 2.174162890625000E+04,      /* J = 18 */
(PID.TID 0000.0001)                 2.175953515625000E+04,      /* J = 19 */
(PID.TID 0000.0001)                 2.177719140625000E+04,      /* J = 20 */
(PID.TID 0000.0001)                 2.179459960937500E+04,      /* J = 21 */
(PID.TID 0000.0001)                 2.181176171875000E+04,      /* J = 22 */
(PID.TID 0000.0001)                 2.182867773437500E+04,      /* J = 23 */
(PID.TID 0000.0001)                 2.184534765625000E+04,      /* J = 24 */
(PID.TID 0000.0001)                 2.186177343750000E+04,      /* J = 25 */
(PID.TID 0000.0001)                 2.187795507812500E+04,      /* J = 26 */
(PID.TID 0000.0001)                 2.189389257812500E+04,      /* J = 27 */
(PID.TID 0000.0001)                 2.190958984375000E+04,      /* J = 28 */
(PID.TID 0000.0001)                 2.192504492187500E+04,      /* J = 29 */
(PID.TID 0000.0001)                 2.194025976562500E+04,      /* J = 30 */
(PID.TID 0000.0001)                 2.195523437500000E+04,      /* J = 31 */
(PID.TID 0000.0001)                 2.196996875000000E+04,      /* J = 32 */
(PID.TID 0000.0001)                 2.198446679687500E+04,      /* J = 33 */
(PID.TID 0000.0001)                 2.199872656250000E+04,      /* J = 34 */
(PID.TID 0000.0001)                 2.201274804687500E+04,      /* J = 35 */
(PID.TID 0000.0001)                 2.202653515625000E+04,      /* J = 36 */
(PID.TID 0000.0001)                 2.204008593750000E+04,      /* J = 37 */
(PID.TID 0000.0001)                 2.205340234375000E+04,      /* J = 38 */
(PID.TID 0000.0001)                 2.206648242187500E+04,      /* J = 39 */
(PID.TID 0000.0001)                 2.207933203125000E+04,      /* J = 40 */
(PID.TID 0000.0001)                 2.209194531250000E+04,      /* J = 41 */
(PID.TID 0000.0001)                 2.210432812500000E+04,      /* J = 42 */
(PID.TID 0000.0001)                 2.211648046875000E+04,      /* J = 43 */
(PID.TID 0000.0001)                 2.212840039062500E+04,      /* J = 44 */
(PID.TID 0000.0001)                 2.214008984375000E+04,      /* J = 45 */
(PID.TID 0000.0001)                 2.215154882812500E+04,      /* J = 46 */
(PID.TID 0000.0001)                 2.216277734375000E+04,      /* J = 47 */
(PID.TID 0000.0001)                 2.217377929687500E+04,      /* J = 48 */
(PID.TID 0000.0001)                 2.218455078125000E+04,      /* J = 49 */
(PID.TID 0000.0001)                 2.219509570312500E+04,      /* J = 50 */
(PID.TID 0000.0001)                 2.220541406250000E+04,      /* J = 51 */
(PID.TID 0000.0001)                 2.221550390625000E+04,      /* J = 52 */
(PID.TID 0000.0001)                 2.222536914062500E+04,      /* J = 53 */
(PID.TID 0000.0001)                 2.223500585937500E+04,      /* J = 54 */
(PID.TID 0000.0001)                 2.224441992187500E+04,      /* J = 55 */
(PID.TID 0000.0001)                 2.225360742187500E+04,      /* J = 56 */
(PID.TID 0000.0001)                 2.226257031250000E+04,      /* J = 57 */
(PID.TID 0000.0001)                 2.227131054687500E+04,      /* J = 58 */
(PID.TID 0000.0001)                 2.227982617187500E+04,      /* J = 59 */
(PID.TID 0000.0001)                 2.228811718750000E+04,      /* J = 60 */
(PID.TID 0000.0001)                 2.229618750000000E+04,      /* J = 61 */
(PID.TID 0000.0001)                 2.230403320312500E+04,      /* J = 62 */
(PID.TID 0000.0001)                 2.231165820312500E+04,      /* J = 63 */
(PID.TID 0000.0001)                 2.231906250000000E+04,      /* J = 64 */
(PID.TID 0000.0001)                 2.232624414062500E+04,      /* J = 65 */
(PID.TID 0000.0001)                 2.233320507812500E+04,      /* J = 66 */
(PID.TID 0000.0001)                 2.233994335937500E+04,      /* J = 67 */
(PID.TID 0000.0001)                 2.234646289062500E+04,      /* J = 68 */
(PID.TID 0000.0001)                 2.235276367187500E+04,      /* J = 69 */
(PID.TID 0000.0001)                 2.235884179687500E+04,      /* J = 70 */
(PID.TID 0000.0001)                 2.236470312500000E+04,      /* J = 71 */
(PID.TID 0000.0001)                 2.237034375000000E+04       /* J = 72 */
(PID.TID 0000.0001)     ;
(PID.TID 0000.0001) dyF =  /* dyF(:,1,:,1) ( units: m ) */
(PID.TID 0000.0001)                 1.641875585937500E+04,      /* I =  1 */
(PID.TID 0000.0001)                 1.642790039062500E+04,      /* I =  2 */
(PID.TID 0000.0001)                 1.643717187500000E+04,      /* I =  3 */
(PID.TID 0000.0001)                 1.644656445312500E+04,      /* I =  4 */
(PID.TID 0000.0001)                 1.645607812500000E+04,      /* I =  5 */
(PID.TID 0000.0001)                 1.646570312500000E+04,      /* I =  6 */
(PID.TID 0000.0001)                 1.647544140625000E+04,      /* I =  7 */
(PID.TID 0000.0001)                 1.648528710937500E+04,      /* I =  8 */
(PID.TID 0000.0001)                 1.649523632812500E+04,      /* I =  9 */
(PID.TID 0000.0001)                 1.650528515625000E+04,      /* I = 10 */
(PID.TID 0000.0001)                 1.651542968750000E+04,      /* I = 11 */
(PID.TID 0000.0001)                 1.652566796875000E+04,      /* I = 12 */
(PID.TID 0000.0001)                 1.653599609375000E+04,      /* I = 13 */
(PID.TID 0000.0001)                 1.654641015625000E+04,      /* I = 14 */
(PID.TID 0000.0001)                 1.655690820312500E+04,      /* I = 15 */
(PID.TID 0000.0001)                 1.656748437500000E+04,      /* I = 16 */
(PID.TID 0000.0001)                 1.657813476562500E+04,      /* I = 17 */
(PID.TID 0000.0001)                 1.658886132812500E+04,      /* I = 18 */
(PID.TID 0000.0001)                 1.659965429687500E+04,      /* I = 19 */
(PID.TID 0000.0001)                 1.661051562500000E+04,      /* I = 20 */
(PID.TID 0000.0001)                 1.662143945312500E+04,      /* I = 21 */
(PID.TID 0000.0001)                 1.663242578125000E+04,      /* I = 22 */
(PID.TID 0000.0001)                 1.664346679687500E+04,      /* I = 23 */
(PID.TID 0000.0001)                 1.665456250000000E+04,      /* I = 24 */
(PID.TID 0000.0001)                 1.666571093750000E+04,      /* I = 25 */
(PID.TID 0000.0001)                 1.667690625000000E+04,      /* I = 26 */
(PID.TID 0000.0001)                 1.668814843750000E+04,      /* I = 27 */
(PID.TID 0000.0001)                 1.669943359375000E+04,      /* I = 28 */
(PID.TID 0000.0001)                 1.671075781250000E+04,      /* I = 29 */
(PID.TID 0000.0001)                 1.672212109375000E+04,      /* I = 30 */
(PID.TID 0000.0001)                 1.673351953125000E+04,      /* I = 31 */
(PID.TID 0000.0001)                 1.674494726562500E+04,      /* I = 32 */
(PID.TID 0000.0001)                 1.675640820312500E+04,      /* I = 33 */
(PID.TID 0000.0001)                 1.676789453125000E+04,      /* I = 34 */
(PID.TID 0000.0001)                 1.677940429687500E+04,      /* I = 35 */
(PID.TID 0000.0001)                 1.679093945312500E+04,      /* I = 36 */
(PID.TID 0000.0001)                 1.680249218750000E+04,      /* I = 37 */
(PID.TID 0000.0001)                 1.681406250000000E+04,      /* I = 38 */
(PID.TID 0000.0001)                 1.682565039062500E+04,      /* I = 39 */
(PID.TID 0000.0001)                 1.683724804687500E+04,      /* I = 40 */
(PID.TID 0000.0001)                 1.684885937500000E+04,      /* I = 41 */
(PID.TID 0000.0001)                 1.686047851562500E+04,      /* I = 42 */
(PID.TID 0000.0001)                 1.687210351562500E+04,      /* I = 43 */
(PID.TID 0000.0001)                 1.688373242187500E+04,      /* I = 44 */
(PID.TID 0000.0001)                 1.689536523437500E+04,      /* I = 45 */
(PID.TID 0000.0001)                 1.690699609375000E+04,      /* I = 46 */
(PID.TID 0000.0001)                 1.691862695312500E+04,      /* I = 47 */
(PID.TID 0000.0001)                 1.693025390625000E+04,      /* I = 48 */
(PID.TID 0000.0001)                 1.694187695312500E+04,      /* I = 49 */
(PID.TID 0000.0001)                 1.695349023437500E+04,      /* I = 50 */
(PID.TID 0000.0001)                 1.696509570312500E+04,      /* I = 51 */
(PID.TID 0000.0001)                 1.697668945312500E+04,      /* I = 52 */
(PID.TID 0000.0001)                 1.698826953125000E+04,      /* I = 53 */
(PID.TID 0000.0001)                 1.699983593750000E+04,      /* I = 54 */
(PID.TID 0000.0001)                 1.701138671875000E+04,      /* I = 55 */
(PID.TID 0000.0001)                 1.702291992187500E+04,      /* I = 56 */
(PID.TID 0000.0001)                 1.703443359375000E+04,      /* I = 57 */
(PID.TID 0000.0001)                 1.704592578125000E+04,      /* I = 58 */
(PID.TID 0000.0001)                 1.705739453125000E+04,      /* I = 59 */
(PID.TID 0000.0001)                 1.706883984375000E+04,      /* I = 60 */
(PID.TID 0000.0001)                 1.708025976562500E+04,      /* I = 61 */
(PID.TID 0000.0001)                 1.709165039062500E+04,      /* I = 62 */
(PID.TID 0000.0001)                 1.710301562500000E+04,      /* I = 63 */
(PID.TID 0000.0001)                 1.711434765625000E+04,      /* I = 64 */
(PID.TID 0000.0001)                 1.712565039062500E+04,      /* I = 65 */
(PID.TID 0000.0001)                 1.713691992187500E+04,      /* I = 66 */
(PID.TID 0000.0001)                 1.714815625000000E+04,      /* I = 67 */
(PID.TID 0000.0001)                 1.715935546875000E+04,      /* I = 68 */
(PID.TID 0000.0001)                 1.717051953125000E+04,      /* I = 69 */
(PID.TID 0000.0001)                 1.718164453125000E+04,      /* I = 70 */
(PID.TID 0000.0001)                 1.719273046875000E+04,      /* I = 71 */
(PID.TID 0000.0001)                 1.720377734375000E+04,      /* I = 72 */
(PID.TID 0000.0001)                 1.721478125000000E+04,      /* I = 73 */
(PID.TID 0000.0001)                 1.722574414062500E+04,      /* I = 74 */
(PID.TID 0000.0001)                 1.723666210937500E+04,      /* I = 75 */
(PID.TID 0000.0001)                 1.724753515625000E+04       /* I = 76 */
(PID.TID 0000.0001)     ;
(PID.TID 0000.0001) dyF =  /* dyF(1,:,1,:) ( units: m ) */
(PID.TID 0000.0001)                 1.641875585937500E+04,      /* J =  1 */
(PID.TID 0000.0001)                 1.641383984375000E+04,      /* J =  2 */
(PID.TID 0000.0001)                 1.640894335937500E+04,      /* J =  3 */
(PID.TID 0000.0001)                 1.640406640625000E+04,      /* J =  4 */
(PID.TID 0000.0001)                 1.639921093750000E+04,      /* J =  5 */
(PID.TID 0000.0001)                 1.639437695312500E+04,      /* J =  6 */
(PID.TID 0000.0001)                 1.638956445312500E+04,      /* J =  7 */
(PID.TID 0000.0001)                 1.638477929687500E+04,      /* J =  8 */
(PID.TID 0000.0001)                 1.638001855468750E+04,      /* J =  9 */
(PID.TID 0000.0001)                 1.637528515625000E+04,      /* J = 10 */
(PID.TID 0000.0001)                 1.637057812500000E+04,      /* J = 11 */
(PID.TID 0000.0001)                 1.636590136718750E+04,      /* J = 12 */
(PID.TID 0000.0001)                 1.636125390625000E+04,      /* J = 13 */
(PID.TID 0000.0001)                 1.635663671875000E+04,      /* J = 14 */
(PID.TID 0000.0001)                 1.635205175781250E+04,      /* J = 15 */
(PID.TID 0000.0001)                 1.634750000000000E+04,      /* J = 16 */
(PID.TID 0000.0001)                 1.634298046875000E+04,      /* J = 17 */
(PID.TID 0000.0001)                 1.633849707031250E+04,      /* J = 18 */
(PID.TID 0000.0001)                 1.633404882812500E+04,      /* J = 19 */
(PID.TID 0000.0001)                 1.632963671875000E+04,      /* J = 20 */
(PID.TID 0000.0001)                 1.632526171875000E+04,      /* J = 21 */
(PID.TID 0000.0001)                 1.632092480468750E+04,      /* J = 22 */
(PID.TID 0000.0001)                 1.631662695312500E+04,      /* J = 23 */
(PID.TID 0000.0001)                 1.631236816406250E+04,      /* J = 24 */
(PID.TID 0000.0001)                 1.630815039062500E+04,      /* J = 25 */
(PID.TID 0000.0001)                 1.630397460937500E+04,      /* J = 26 */
(PID.TID 0000.0001)                 1.629983984375000E+04,      /* J = 27 */
(PID.TID 0000.0001)                 1.629574902343750E+04,      /* J = 28 */
(PID.TID 0000.0001)                 1.629170019531250E+04,      /* J = 29 */
(PID.TID 0000.0001)                 1.628769726562500E+04,      /* J = 30 */
(PID.TID 0000.0001)                 1.628373828125000E+04,      /* J = 31 */
(PID.TID 0000.0001)                 1.627982519531250E+04,      /* J = 32 */
(PID.TID 0000.0001)                 1.627595800781250E+04,      /* J = 33 */
(PID.TID 0000.0001)                 1.627213867187500E+04,      /* J = 34 */
(PID.TID 0000.0001)                 1.626836621093750E+04,      /* J = 35 */
(PID.TID 0000.0001)                 1.626464160156250E+04,      /* J = 36 */
(PID.TID 0000.0001)                 1.626096679687500E+04,      /* J = 37 */
(PID.TID 0000.0001)                 1.625734082031250E+04,      /* J = 38 */
(PID.TID 0000.0001)                 1.625376464843750E+04,      /* J = 39 */
(PID.TID 0000.0001)                 1.625023925781250E+04,      /* J = 40 */
(PID.TID 0000.0001)                 1.624676562500000E+04,      /* J = 41 */
(PID.TID 0000.0001)                 1.624334277343750E+04,      /* J = 42 */
(PID.TID 0000.0001)                 1.623997265625000E+04,      /* J = 43 */
(PID.TID 0000.0001)                 1.623665527343750E+04,      /* J = 44 */
(PID.TID 0000.0001)                 1.623339062500000E+04,      /* J = 45 */
(PID.TID 0000.0001)                 1.623017968750000E+04,      /* J = 46 */
(PID.TID 0000.0001)                 1.622702343750000E+04,      /* J = 47 */
(PID.TID 0000.0001)                 1.622392089843750E+04,      /* J = 48 */
(PID.TID 0000.0001)                 1.622087500000000E+04,      /* J = 49 */
(PID.TID 0000.0001)                 1.621788378906250E+04,      /* J = 50 */
(PID.TID 0000.0001)                 1.621494824218750E+04,      /* J = 51 */
(PID.TID 0000.0001)                 1.621206933593750E+04,      /* J = 52 */
(PID.TID 0000.0001)                 1.620924804687500E+04,      /* J = 53 */
(PID.TID 0000.0001)                 1.620648242187500E+04,      /* J = 54 */
(PID.TID 0000.0001)                 1.620377539062500E+04,      /* J = 55 */
(PID.TID 0000.0001)                 1.620112695312500E+04,      /* J = 56 */
(PID.TID 0000.0001)                 1.619853613281250E+04,      /* J = 57 */
(PID.TID 0000.0001)                 1.619600390625000E+04,      /* J = 58 */
(PID.TID 0000.0001)                 1.619353125000000E+04,      /* J = 59 */
(PID.TID 0000.0001)                 1.619111718750000E+04,      /* J = 60 */
(PID.TID 0000.0001)                 1.618876367187500E+04,      /* J = 61 */
(PID.TID 0000.0001)                 1.618646972656250E+04,      /* J = 62 */
(PID.TID 0000.0001)                 1.618423632812500E+04,      /* J = 63 */
(PID.TID 0000.0001)                 1.618206347656250E+04,      /* J = 64 */
(PID.TID 0000.0001)                 1.617995214843750E+04,      /* J = 65 */
(PID.TID 0000.0001)                 1.617790136718750E+04,      /* J = 66 */
(PID.TID 0000.0001)                 1.617591210937500E+04,      /* J = 67 */
(PID.TID 0000.0001)                 1.617398535156250E+04,      /* J = 68 */
(PID.TID 0000.0001)                 1.617212011718750E+04,      /* J = 69 */
(PID.TID 0000.0001)                 1.617031640625000E+04,      /* J = 70 */
(PID.TID 0000.0001)                 1.616857617187500E+04,      /* J = 71 */
(PID.TID 0000.0001)                 1.616689843750000E+04       /* J = 72 */
(PID.TID 0000.0001)     ;
(PID.TID 0000.0001) dxG =  /* dxG(:,1,:,1) ( units: m ) */
(PID.TID 0000.0001)                 2.138695117187500E+04,      /* I =  1 */
(PID.TID 0000.0001)                 2.132937304687500E+04,      /* I =  2 */
(PID.TID 0000.0001)                 2.127251171875000E+04,      /* I =  3 */
(PID.TID 0000.0001)                 2.121635351562500E+04,      /* I =  4 */
(PID.TID 0000.0001)                 2.116088671875000E+04,      /* I =  5 */
(PID.TID 0000.0001)                 2.110610351562500E+04,      /* I =  6 */
(PID.TID 0000.0001)                 2.105199023437500E+04,      /* I =  7 */
(PID.TID 0000.0001)                 2.099853710937500E+04,      /* I =  8 */
(PID.TID 0000.0001)                 2.094573242187500E+04,      /* I =  9 */
(PID.TID 0000.0001)                 2.089356640625000E+04,      /* I = 10 */
(PID.TID 0000.0001)                 2.084203125000000E+04,      /* I = 11 */
(PID.TID 0000.0001)                 2.079111523437500E+04,      /* I = 12 */
(PID.TID 0000.0001)                 2.074080664062500E+04,      /* I = 13 */
(PID.TID 0000.0001)                 2.069109960937500E+04,      /* I = 14 */
(PID.TID 0000.0001)                 2.064198437500000E+04,      /* I = 15 */
(PID.TID 0000.0001)                 2.059344921875000E+04,      /* I = 16 */
(PID.TID 0000.0001)                 2.054548828125000E+04,      /* I = 17 */
(PID.TID 0000.0001)                 2.049808984375000E+04,      /* I = 18 */
(PID.TID 0000.0001)                 2.045124609375000E+04,      /* I = 19 */
(PID.TID 0000.0001)                 2.040495117187500E+04,      /* I = 20 */
(PID.TID 0000.0001)                 2.035919335937500E+04,      /* I = 21 */
(PID.TID 0000.0001)                 2.031396484375000E+04,      /* I = 22 */
(PID.TID 0000.0001)                 2.026926171875000E+04,      /* I = 23 */
(PID.TID 0000.0001)                 2.022507031250000E+04,      /* I = 24 */
(PID.TID 0000.0001)                 2.018138867187500E+04,      /* I = 25 */
(PID.TID 0000.0001)                 2.013820507812500E+04,      /* I = 26 */
(PID.TID 0000.0001)                 2.009551367187500E+04,      /* I = 27 */
(PID.TID 0000.0001)                 2.005330859375000E+04,      /* I = 28 */
(PID.TID 0000.0001)                 2.001158007812500E+04,      /* I = 29 */
(PID.TID 0000.0001)                 1.997032421875000E+04,      /* I = 30 */
(PID.TID 0000.0001)                 1.992953125000000E+04,      /* I = 31 */
(PID.TID 0000.0001)                 1.988919726562500E+04,      /* I = 32 */
(PID.TID 0000.0001)                 1.984931250000000E+04,      /* I = 33 */
(PID.TID 0000.0001)                 1.980987500000000E+04,      /* I = 34 */
(PID.TID 0000.0001)                 1.977087500000000E+04,      /* I = 35 */
(PID.TID 0000.0001)                 1.973230859375000E+04,      /* I = 36 */
(PID.TID 0000.0001)                 1.969416796875000E+04,      /* I = 37 */
(PID.TID 0000.0001)                 1.965644921875000E+04,      /* I = 38 */
(PID.TID 0000.0001)                 1.961914453125000E+04,      /* I = 39 */
(PID.TID 0000.0001)                 1.958224804687500E+04,      /* I = 40 */
(PID.TID 0000.0001)                 1.954575781250000E+04,      /* I = 41 */
(PID.TID 0000.0001)                 1.950966601562500E+04,      /* I = 42 */
(PID.TID 0000.0001)                 1.947396679687500E+04,      /* I = 43 */
(PID.TID 0000.0001)                 1.943865429687500E+04,      /* I = 44 */
(PID.TID 0000.0001)                 1.940372656250000E+04,      /* I = 45 */
(PID.TID 0000.0001)                 1.936917578125000E+04,      /* I = 46 */
(PID.TID 0000.0001)                 1.933500000000000E+04,      /* I = 47 */
(PID.TID 0000.0001)                 1.930119140625000E+04,      /* I = 48 */
(PID.TID 0000.0001)                 1.926774609375000E+04,      /* I = 49 */
(PID.TID 0000.0001)                 1.923466210937500E+04,      /* I = 50 */
(PID.TID 0000.0001)                 1.920193164062500E+04,      /* I = 51 */
(PID.TID 0000.0001)                 1.916955078125000E+04,      /* I = 52 */
(PID.TID 0000.0001)                 1.913751757812500E+04,      /* I = 53 */
(PID.TID 0000.0001)                 1.910582617187500E+04,      /* I = 54 */
(PID.TID 0000.0001)                 1.907447070312500E+04,      /* I = 55 */
(PID.TID 0000.0001)                 1.904345117187500E+04,      /* I = 56 */
(PID.TID 0000.0001)                 1.901275976562500E+04,      /* I = 57 */
(PID.TID 0000.0001)                 1.898239453125000E+04,      /* I = 58 */
(PID.TID 0000.0001)                 1.895235351562500E+04,      /* I = 59 */
(PID.TID 0000.0001)                 1.892262890625000E+04,      /* I = 60 */
(PID.TID 0000.0001)                 1.889321875000000E+04,      /* I = 61 */
(PID.TID 0000.0001)                 1.886412109375000E+04,      /* I = 62 */
(PID.TID 0000.0001)                 1.883533203125000E+04,      /* I = 63 */
(PID.TID 0000.0001)                 1.880684570312500E+04,      /* I = 64 */
(PID.TID 0000.0001)                 1.877866015625000E+04,      /* I = 65 */
(PID.TID 0000.0001)                 1.875077343750000E+04,      /* I = 66 */
(PID.TID 0000.0001)                 1.872317968750000E+04,      /* I = 67 */
(PID.TID 0000.0001)                 1.869587890625000E+04,      /* I = 68 */
(PID.TID 0000.0001)                 1.866886523437500E+04,      /* I = 69 */
(PID.TID 0000.0001)                 1.864213867187500E+04,      /* I = 70 */
(PID.TID 0000.0001)                 1.861569140625000E+04,      /* I = 71 */
(PID.TID 0000.0001)                 1.858952539062500E+04,      /* I = 72 */
(PID.TID 0000.0001)                 1.856363671875000E+04,      /* I = 73 */
(PID.TID 0000.0001)                 1.853801953125000E+04,      /* I = 74 */
(PID.TID 0000.0001)                 1.851267578125000E+04,      /* I = 75 */
(PID.TID 0000.0001)                 1.848759960937500E+04       /* I = 76 */
(PID.TID 0000.0001)     ;
(PID.TID 0000.0001) dxG =  /* dxG(1,:,1,:) ( units: m ) */
(PID.TID 0000.0001)                 2.138695117187500E+04,      /* J =  1 */
(PID.TID 0000.0001)                 2.140937500000000E+04,      /* J =  2 */
(PID.TID 0000.0001)                 2.143153125000000E+04,      /* J =  3 */
(PID.TID 0000.0001)                 2.145342187500000E+04,      /* J =  4 */
(PID.TID 0000.0001)                 2.147504687500000E+04,      /* J =  5 */
(PID.TID 0000.0001)                 2.149641015625000E+04,      /* J =  6 */
(PID.TID 0000.0001)                 2.151750976562500E+04,      /* J =  7 */
(PID.TID 0000.0001)                 2.153834765625000E+04,      /* J =  8 */
(PID.TID 0000.0001)                 2.155892578125000E+04,      /* J =  9 */
(PID.TID 0000.0001)                 2.157924414062500E+04,      /* J = 10 */
(PID.TID 0000.0001)                 2.159930468750000E+04,      /* J = 11 */
(PID.TID 0000.0001)                 2.161910742187500E+04,      /* J = 12 */
(PID.TID 0000.0001)                 2.163865429687500E+04,      /* J = 13 */
(PID.TID 0000.0001)                 2.165794726562500E+04,      /* J = 14 */
(PID.TID 0000.0001)                 2.167698437500000E+04,      /* J = 15 */
(PID.TID 0000.0001)                 2.169576953125000E+04,      /* J = 16 */
(PID.TID 0000.0001)                 2.171430078125000E+04,      /* J = 17 */
(PID.TID 0000.0001)                 2.173258203125000E+04,      /* J = 18 */
(PID.TID 0000.0001)                 2.175061328125000E+04,      /* J = 19 */
(PID.TID 0000.0001)                 2.176839453125000E+04,      /* J = 20 */
(PID.TID 0000.0001)                 2.178592578125000E+04,      /* J = 21 */
(PID.TID 0000.0001)                 2.180321093750000E+04,      /* J = 22 */
(PID.TID 0000.0001)                 2.182025000000000E+04,      /* J = 23 */
(PID.TID 0000.0001)                 2.183704296875000E+04,      /* J = 24 */
(PID.TID 0000.0001)                 2.185358984375000E+04,      /* J = 25 */
(PID.TID 0000.0001)                 2.186989453125000E+04,      /* J = 26 */
(PID.TID 0000.0001)                 2.188595312500000E+04,      /* J = 27 */
(PID.TID 0000.0001)                 2.190177148437500E+04,      /* J = 28 */
(PID.TID 0000.0001)                 2.191734765625000E+04,      /* J = 29 */
(PID.TID 0000.0001)                 2.193268164062500E+04,      /* J = 30 */
(PID.TID 0000.0001)                 2.194777539062500E+04,      /* J = 31 */
(PID.TID 0000.0001)                 2.196263085937500E+04,      /* J = 32 */
(PID.TID 0000.0001)                 2.197724804687500E+04,      /* J = 33 */
(PID.TID 0000.0001)                 2.199162500000000E+04,      /* J = 34 */
(PID.TID 0000.0001)                 2.200576757812500E+04,      /* J = 35 */
(PID.TID 0000.0001)                 2.201967187500000E+04,      /* J = 36 */
(PID.TID 0000.0001)                 2.203333984375000E+04,      /* J = 37 */
(PID.TID 0000.0001)                 2.204677343750000E+04,      /* J = 38 */
(PID.TID 0000.0001)                 2.205997070312500E+04,      /* J = 39 */
(PID.TID 0000.0001)                 2.207293554687500E+04,      /* J = 40 */
(PID.TID 0000.0001)                 2.208566796875000E+04,      /* J = 41 */
(PID.TID 0000.0001)                 2.209816601562500E+04,      /* J = 42 */
(PID.TID 0000.0001)                 2.211043359375000E+04,      /* J = 43 */
(PID.TID 0000.0001)                 2.212246875000000E+04,      /* J = 44 */
(PID.TID 0000.0001)                 2.213427343750000E+04,      /* J = 45 */
(PID.TID 0000.0001)                 2.214584765625000E+04,      /* J = 46 */
(PID.TID 0000.0001)                 2.215719140625000E+04,      /* J = 47 */
(PID.TID 0000.0001)                 2.216830664062500E+04,      /* J = 48 */
(PID.TID 0000.0001)                 2.217919335937500E+04,      /* J = 49 */
(PID.TID 0000.0001)                 2.218985156250000E+04,      /* J = 50 */
(PID.TID 0000.0001)                 2.220028320312500E+04,      /* J = 51 */
(PID.TID 0000.0001)                 2.221048632812500E+04,      /* J = 52 */
(PID.TID 0000.0001)                 2.222046484375000E+04,      /* J = 53 */
(PID.TID 0000.0001)                 2.223021484375000E+04,      /* J = 54 */
(PID.TID 0000.0001)                 2.223974023437500E+04,      /* J = 55 */
(PID.TID 0000.0001)                 2.224904101562500E+04,      /* J = 56 */
(PID.TID 0000.0001)                 2.225811718750000E+04,      /* J = 57 */
(PID.TID 0000.0001)                 2.226696875000000E+04,      /* J = 58 */
(PID.TID 0000.0001)                 2.227559570312500E+04,      /* J = 59 */
(PID.TID 0000.0001)                 2.228400000000000E+04,      /* J = 60 */
(PID.TID 0000.0001)                 2.229217968750000E+04,      /* J = 61 */
(PID.TID 0000.0001)                 2.230013867187500E+04,      /* J = 62 */
(PID.TID 0000.0001)                 2.230787500000000E+04,      /* J = 63 */
(PID.TID 0000.0001)                 2.231538867187500E+04,      /* J = 64 */
(PID.TID 0000.0001)                 2.232267968750000E+04,      /* J = 65 */
(PID.TID 0000.0001)                 2.232975195312500E+04,      /* J = 66 */
(PID.TID 0000.0001)                 2.233660156250000E+04,      /* J = 67 */
(PID.TID 0000.0001)                 2.234323046875000E+04,      /* J = 68 */
(PID.TID 0000.0001)                 2.234964062500000E+04,      /* J = 69 */
(PID.TID 0000.0001)                 2.235583007812500E+04,      /* J = 70 */
(PID.TID 0000.0001)                 2.236179882812500E+04,      /* J = 71 */
(PID.TID 0000.0001)                 2.236755078125000E+04       /* J = 72 */
(PID.TID 0000.0001)     ;
(PID.TID 0000.0001) dyG =  /* dyG(:,1,:,1) ( units: m ) */
(PID.TID 0000.0001)                 1.641423242187500E+04,      /* I =  1 */
(PID.TID 0000.0001)                 1.642331250000000E+04,      /* I =  2 */
(PID.TID 0000.0001)                 1.643252148437500E+04,      /* I =  3 */
(PID.TID 0000.0001)                 1.644185351562500E+04,      /* I =  4 */
(PID.TID 0000.0001)                 1.645130664062500E+04,      /* I =  5 */
(PID.TID 0000.0001)                 1.646087695312500E+04,      /* I =  6 */
(PID.TID 0000.0001)                 1.647055859375000E+04,      /* I =  7 */
(PID.TID 0000.0001)                 1.648035156250000E+04,      /* I =  8 */
(PID.TID 0000.0001)                 1.649024804687500E+04,      /* I =  9 */
(PID.TID 0000.0001)                 1.650024804687500E+04,      /* I = 10 */
(PID.TID 0000.0001)                 1.651034570312500E+04,      /* I = 11 */
(PID.TID 0000.0001)                 1.652053710937500E+04,      /* I = 12 */
(PID.TID 0000.0001)                 1.653082226562500E+04,      /* I = 13 */
(PID.TID 0000.0001)                 1.654119335937500E+04,      /* I = 14 */
(PID.TID 0000.0001)                 1.655164843750000E+04,      /* I = 15 */
(PID.TID 0000.0001)                 1.656218554687500E+04,      /* I = 16 */
(PID.TID 0000.0001)                 1.657280078125000E+04,      /* I = 17 */
(PID.TID 0000.0001)                 1.658348828125000E+04,      /* I = 18 */
(PID.TID 0000.0001)                 1.659425000000000E+04,      /* I = 19 */
(PID.TID 0000.0001)                 1.660507812500000E+04,      /* I = 20 */
(PID.TID 0000.0001)                 1.661597070312500E+04,      /* I = 21 */
(PID.TID 0000.0001)                 1.662692578125000E+04,      /* I = 22 */
(PID.TID 0000.0001)                 1.663793945312500E+04,      /* I = 23 */
(PID.TID 0000.0001)                 1.664900781250000E+04,      /* I = 24 */
(PID.TID 0000.0001)                 1.666013085937500E+04,      /* I = 25 */
(PID.TID 0000.0001)                 1.667130273437500E+04,      /* I = 26 */
(PID.TID 0000.0001)                 1.668252148437500E+04,      /* I = 27 */
(PID.TID 0000.0001)                 1.669378710937500E+04,      /* I = 28 */
(PID.TID 0000.0001)                 1.670509179687500E+04,      /* I = 29 */
(PID.TID 0000.0001)                 1.671643554687500E+04,      /* I = 30 */
(PID.TID 0000.0001)                 1.672781640625000E+04,      /* I = 31 */
(PID.TID 0000.0001)                 1.673923046875000E+04,      /* I = 32 */
(PID.TID 0000.0001)                 1.675067382812500E+04,      /* I = 33 */
(PID.TID 0000.0001)                 1.676214843750000E+04,      /* I = 34 */
(PID.TID 0000.0001)                 1.677364648437500E+04,      /* I = 35 */
(PID.TID 0000.0001)                 1.678516992187500E+04,      /* I = 36 */
(PID.TID 0000.0001)                 1.679671289062500E+04,      /* I = 37 */
(PID.TID 0000.0001)                 1.680827539062500E+04,      /* I = 38 */
(PID.TID 0000.0001)                 1.681985546875000E+04,      /* I = 39 */
(PID.TID 0000.0001)                 1.683144726562500E+04,      /* I = 40 */
(PID.TID 0000.0001)                 1.684305273437500E+04,      /* I = 41 */
(PID.TID 0000.0001)                 1.685466796875000E+04,      /* I = 42 */
(PID.TID 0000.0001)                 1.686628906250000E+04,      /* I = 43 */
(PID.TID 0000.0001)                 1.687791796875000E+04,      /* I = 44 */
(PID.TID 0000.0001)                 1.688954882812500E+04,      /* I = 45 */
(PID.TID 0000.0001)                 1.690118164062500E+04,      /* I = 46 */
(PID.TID 0000.0001)                 1.691281250000000E+04,      /* I = 47 */
(PID.TID 0000.0001)                 1.692444140625000E+04,      /* I = 48 */
(PID.TID 0000.0001)                 1.693606640625000E+04,      /* I = 49 */
(PID.TID 0000.0001)                 1.694768359375000E+04,      /* I = 50 */
(PID.TID 0000.0001)                 1.695929296875000E+04,      /* I = 51 */
(PID.TID 0000.0001)                 1.697089257812500E+04,      /* I = 52 */
(PID.TID 0000.0001)                 1.698248046875000E+04,      /* I = 53 */
(PID.TID 0000.0001)                 1.699405468750000E+04,      /* I = 54 */
(PID.TID 0000.0001)                 1.700561328125000E+04,      /* I = 55 */
(PID.TID 0000.0001)                 1.701715625000000E+04,      /* I = 56 */
(PID.TID 0000.0001)                 1.702867968750000E+04,      /* I = 57 */
(PID.TID 0000.0001)                 1.704018164062500E+04,      /* I = 58 */
(PID.TID 0000.0001)                 1.705166210937500E+04,      /* I = 59 */
(PID.TID 0000.0001)                 1.706311914062500E+04,      /* I = 60 */
(PID.TID 0000.0001)                 1.707455273437500E+04,      /* I = 61 */
(PID.TID 0000.0001)                 1.708595898437500E+04,      /* I = 62 */
(PID.TID 0000.0001)                 1.709733593750000E+04,      /* I = 63 */
(PID.TID 0000.0001)                 1.710868554687500E+04,      /* I = 64 */
(PID.TID 0000.0001)                 1.712000390625000E+04,      /* I = 65 */
(PID.TID 0000.0001)                 1.713128906250000E+04,      /* I = 66 */
(PID.TID 0000.0001)                 1.714254296875000E+04,      /* I = 67 */
(PID.TID 0000.0001)                 1.715375976562500E+04,      /* I = 68 */
(PID.TID 0000.0001)                 1.716494140625000E+04,      /* I = 69 */
(PID.TID 0000.0001)                 1.717608789062500E+04,      /* I = 70 */
(PID.TID 0000.0001)                 1.718719335937500E+04,      /* I = 71 */
(PID.TID 0000.0001)                 1.719825976562500E+04,      /* I = 72 */
(PID.TID 0000.0001)                 1.720928515625000E+04,      /* I = 73 */
(PID.TID 0000.0001)                 1.722026757812500E+04,      /* I = 74 */
(PID.TID 0000.0001)                 1.723120898437500E+04,      /* I = 75 */
(PID.TID 0000.0001)                 1.724210351562500E+04       /* I = 76 */
(PID.TID 0000.0001)     ;
(PID.TID 0000.0001) dyG =  /* dyG(1,:,1,:) ( units: m ) */
(PID.TID 0000.0001)                 1.641423242187500E+04,      /* J =  1 */
(PID.TID 0000.0001)                 1.640936328125000E+04,      /* J =  2 */
(PID.TID 0000.0001)                 1.640451171875000E+04,      /* J =  3 */
(PID.TID 0000.0001)                 1.639967773437500E+04,      /* J =  4 */
(PID.TID 0000.0001)                 1.639486523437500E+04,      /* J =  5 */
(PID.TID 0000.0001)                 1.639007421875000E+04,      /* J =  6 */
(PID.TID 0000.0001)                 1.638530468750000E+04,      /* J =  7 */
(PID.TID 0000.0001)                 1.638055957031250E+04,      /* J =  8 */
(PID.TID 0000.0001)                 1.637583984375000E+04,      /* J =  9 */
(PID.TID 0000.0001)                 1.637114550781250E+04,      /* J = 10 */
(PID.TID 0000.0001)                 1.636647753906250E+04,      /* J = 11 */
(PID.TID 0000.0001)                 1.636183789062500E+04,      /* J = 12 */
(PID.TID 0000.0001)                 1.635722753906250E+04,      /* J = 13 */
(PID.TID 0000.0001)                 1.635264746093750E+04,      /* J = 14 */
(PID.TID 0000.0001)                 1.634809863281250E+04,      /* J = 15 */
(PID.TID 0000.0001)                 1.634358105468750E+04,      /* J = 16 */
(PID.TID 0000.0001)                 1.633909765625000E+04,      /* J = 17 */
(PID.TID 0000.0001)                 1.633464746093750E+04,      /* J = 18 */
(PID.TID 0000.0001)                 1.633023144531250E+04,      /* J = 19 */
(PID.TID 0000.0001)                 1.632585253906250E+04,      /* J = 20 */
(PID.TID 0000.0001)                 1.632150878906250E+04,      /* J = 21 */
(PID.TID 0000.0001)                 1.631720312500000E+04,      /* J = 22 */
(PID.TID 0000.0001)                 1.631293652343750E+04,      /* J = 23 */
(PID.TID 0000.0001)                 1.630870800781250E+04,      /* J = 24 */
(PID.TID 0000.0001)                 1.630451953125000E+04,      /* J = 25 */
(PID.TID 0000.0001)                 1.630037207031250E+04,      /* J = 26 */
(PID.TID 0000.0001)                 1.629626660156250E+04,      /* J = 27 */
(PID.TID 0000.0001)                 1.629220312500000E+04,      /* J = 28 */
(PID.TID 0000.0001)                 1.628818164062500E+04,      /* J = 29 */
(PID.TID 0000.0001)                 1.628420507812500E+04,      /* J = 30 */
(PID.TID 0000.0001)                 1.628027246093750E+04,      /* J = 31 */
(PID.TID 0000.0001)                 1.627638476562500E+04,      /* J = 32 */
(PID.TID 0000.0001)                 1.627254296875000E+04,      /* J = 33 */
(PID.TID 0000.0001)                 1.626874707031250E+04,      /* J = 34 */
(PID.TID 0000.0001)                 1.626499902343750E+04,      /* J = 35 */
(PID.TID 0000.0001)                 1.626129785156250E+04,      /* J = 36 */
(PID.TID 0000.0001)                 1.625764550781250E+04,      /* J = 37 */
(PID.TID 0000.0001)                 1.625404199218750E+04,      /* J = 38 */
(PID.TID 0000.0001)                 1.625048828125000E+04,      /* J = 39 */
(PID.TID 0000.0001)                 1.624698437500000E+04,      /* J = 40 */
(PID.TID 0000.0001)                 1.624353125000000E+04,      /* J = 41 */
(PID.TID 0000.0001)                 1.624012988281250E+04,      /* J = 42 */
(PID.TID 0000.0001)                 1.623677929687500E+04,      /* J = 43 */
(PID.TID 0000.0001)                 1.623348144531250E+04,      /* J = 44 */
(PID.TID 0000.0001)                 1.623023632812500E+04,      /* J = 45 */
(PID.TID 0000.0001)                 1.622704394531250E+04,      /* J = 46 */
(PID.TID 0000.0001)                 1.622390625000000E+04,      /* J = 47 */
(PID.TID 0000.0001)                 1.622082226562500E+04,      /* J = 48 */
(PID.TID 0000.0001)                 1.621779296875000E+04,      /* J = 49 */
(PID.TID 0000.0001)                 1.621481835937500E+04,      /* J = 50 */
(PID.TID 0000.0001)                 1.621189941406250E+04,      /* J = 51 */
(PID.TID 0000.0001)                 1.620903710937500E+04,      /* J = 52 */
(PID.TID 0000.0001)                 1.620623144531250E+04,      /* J = 53 */
(PID.TID 0000.0001)                 1.620348144531250E+04,      /* J = 54 */
(PID.TID 0000.0001)                 1.620078906250000E+04,      /* J = 55 */
(PID.TID 0000.0001)                 1.619815527343750E+04,      /* J = 56 */
(PID.TID 0000.0001)                 1.619557812500000E+04,      /* J = 57 */
(PID.TID 0000.0001)                 1.619306054687500E+04,      /* J = 58 */
(PID.TID 0000.0001)                 1.619060058593750E+04,      /* J = 59 */
(PID.TID 0000.0001)                 1.618820019531250E+04,      /* J = 60 */
(PID.TID 0000.0001)                 1.618585839843750E+04,      /* J = 61 */
(PID.TID 0000.0001)                 1.618357714843750E+04,      /* J = 62 */
(PID.TID 0000.0001)                 1.618135546875000E+04,      /* J = 63 */
(PID.TID 0000.0001)                 1.617919433593750E+04,      /* J = 64 */
(PID.TID 0000.0001)                 1.617709375000000E+04,      /* J = 65 */
(PID.TID 0000.0001)                 1.617505371093750E+04,      /* J = 66 */
(PID.TID 0000.0001)                 1.617307519531250E+04,      /* J = 67 */
(PID.TID 0000.0001)                 1.617115820312500E+04,      /* J = 68 */
(PID.TID 0000.0001)                 1.616930175781250E+04,      /* J = 69 */
(PID.TID 0000.0001)                 1.616750878906250E+04,      /* J = 70 */
(PID.TID 0000.0001)                 1.616577636718750E+04,      /* J = 71 */
(PID.TID 0000.0001)                 1.616410742187500E+04       /* J = 72 */
(PID.TID 0000.0001)     ;
(PID.TID 0000.0001) dxC =  /* dxC(:,1,:,1) ( units: m ) */
(PID.TID 0000.0001)                 2.142730078125000E+04,      /* I =  1 */
(PID.TID 0000.0001)                 2.136927343750000E+04,      /* I =  2 */
(PID.TID 0000.0001)                 2.131196484375000E+04,      /* I =  3 */
(PID.TID 0000.0001)                 2.125536718750000E+04,      /* I =  4 */
(PID.TID 0000.0001)                 2.119946679687500E+04,      /* I =  5 */
(PID.TID 0000.0001)                 2.114425390625000E+04,      /* I =  6 */
(PID.TID 0000.0001)                 2.108971679687500E+04,      /* I =  7 */
(PID.TID 0000.0001)                 2.103584765625000E+04,      /* I =  8 */
(PID.TID 0000.0001)                 2.098263085937500E+04,      /* I =  9 */
(PID.TID 0000.0001)                 2.093005859375000E+04,      /* I = 10 */
(PID.TID 0000.0001)                 2.087812304687500E+04,      /* I = 11 */
(PID.TID 0000.0001)                 2.082681054687500E+04,      /* I = 12 */
(PID.TID 0000.0001)                 2.077611132812500E+04,      /* I = 13 */
(PID.TID 0000.0001)                 2.072601953125000E+04,      /* I = 14 */
(PID.TID 0000.0001)                 2.067652148437500E+04,      /* I = 15 */
(PID.TID 0000.0001)                 2.062761132812500E+04,      /* I = 16 */
(PID.TID 0000.0001)                 2.057927929687500E+04,      /* I = 17 */
(PID.TID 0000.0001)                 2.053151367187500E+04,      /* I = 18 */
(PID.TID 0000.0001)                 2.048431054687500E+04,      /* I = 19 */
(PID.TID 0000.0001)                 2.043765625000000E+04,      /* I = 20 */
(PID.TID 0000.0001)                 2.039154687500000E+04,      /* I = 21 */
(PID.TID 0000.0001)                 2.034597265625000E+04,      /* I = 22 */
(PID.TID 0000.0001)                 2.030092382812500E+04,      /* I = 23 */
(PID.TID 0000.0001)                 2.025639453125000E+04,      /* I = 24 */
(PID.TID 0000.0001)                 2.021237695312500E+04,      /* I = 25 */
(PID.TID 0000.0001)                 2.016886328125000E+04,      /* I = 26 */
(PID.TID 0000.0001)                 2.012584765625000E+04,      /* I = 27 */
(PID.TID 0000.0001)                 2.008331835937500E+04,      /* I = 28 */
(PID.TID 0000.0001)                 2.004127343750000E+04,      /* I = 29 */
(PID.TID 0000.0001)                 1.999970117187500E+04,      /* I = 30 */
(PID.TID 0000.0001)                 1.995859960937500E+04,      /* I = 31 */
(PID.TID 0000.0001)                 1.991795898437500E+04,      /* I = 32 */
(PID.TID 0000.0001)                 1.987777343750000E+04,      /* I = 33 */
(PID.TID 0000.0001)                 1.983803515625000E+04,      /* I = 34 */
(PID.TID 0000.0001)                 1.979874023437500E+04,      /* I = 35 */
(PID.TID 0000.0001)                 1.975988281250000E+04,      /* I = 36 */
(PID.TID 0000.0001)                 1.972145312500000E+04,      /* I = 37 */
(PID.TID 0000.0001)                 1.968344921875000E+04,      /* I = 38 */
(PID.TID 0000.0001)                 1.964586523437500E+04,      /* I = 39 */
(PID.TID 0000.0001)                 1.960869140625000E+04,      /* I = 40 */
(PID.TID 0000.0001)                 1.957192578125000E+04,      /* I = 41 */
(PID.TID 0000.0001)                 1.953556250000000E+04,      /* I = 42 */
(PID.TID 0000.0001)                 1.949959570312500E+04,      /* I = 43 */
(PID.TID 0000.0001)                 1.946401953125000E+04,      /* I = 44 */
(PID.TID 0000.0001)                 1.942883007812500E+04,      /* I = 45 */
(PID.TID 0000.0001)                 1.939402343750000E+04,      /* I = 46 */
(PID.TID 0000.0001)                 1.935958984375000E+04,      /* I = 47 */
(PID.TID 0000.0001)                 1.932552929687500E+04,      /* I = 48 */
(PID.TID 0000.0001)                 1.929183593750000E+04,      /* I = 49 */
(PID.TID 0000.0001)                 1.925850390625000E+04,      /* I = 50 */
(PID.TID 0000.0001)                 1.922553125000000E+04,      /* I = 51 */
(PID.TID 0000.0001)                 1.919291015625000E+04,      /* I = 52 */
(PID.TID 0000.0001)                 1.916063867187500E+04,      /* I = 53 */
(PID.TID 0000.0001)                 1.912871093750000E+04,      /* I = 54 */
(PID.TID 0000.0001)                 1.909712304687500E+04,      /* I = 55 */
(PID.TID 0000.0001)                 1.906587304687500E+04,      /* I = 56 */
(PID.TID 0000.0001)                 1.903495507812500E+04,      /* I = 57 */
(PID.TID 0000.0001)                 1.900436523437500E+04,      /* I = 58 */
(PID.TID 0000.0001)                 1.897410156250000E+04,      /* I = 59 */
(PID.TID 0000.0001)                 1.894415820312500E+04,      /* I = 60 */
(PID.TID 0000.0001)                 1.891453125000000E+04,      /* I = 61 */
(PID.TID 0000.0001)                 1.888521875000000E+04,      /* I = 62 */
(PID.TID 0000.0001)                 1.885621484375000E+04,      /* I = 63 */
(PID.TID 0000.0001)                 1.882751953125000E+04,      /* I = 64 */
(PID.TID 0000.0001)                 1.879912500000000E+04,      /* I = 65 */
(PID.TID 0000.0001)                 1.877103320312500E+04,      /* I = 66 */
(PID.TID 0000.0001)                 1.874323632812500E+04,      /* I = 67 */
(PID.TID 0000.0001)                 1.871573437500000E+04,      /* I = 68 */
(PID.TID 0000.0001)                 1.868852148437500E+04,      /* I = 69 */
(PID.TID 0000.0001)                 1.866159570312500E+04,      /* I = 70 */
(PID.TID 0000.0001)                 1.863495507812500E+04,      /* I = 71 */
(PID.TID 0000.0001)                 1.860859570312500E+04,      /* I = 72 */
(PID.TID 0000.0001)                 1.858251562500000E+04,      /* I = 73 */
(PID.TID 0000.0001)                 1.855671093750000E+04,      /* I = 74 */
(PID.TID 0000.0001)                 1.853117773437500E+04,      /* I = 75 */
(PID.TID 0000.0001)                 1.850591601562500E+04       /* I = 76 */
(PID.TID 0000.0001)     ;
(PID.TID 0000.0001) dxC =  /* dxC(1,:,1,:) ( units: m ) */
(PID.TID 0000.0001)                 2.142730078125000E+04,      /* J =  1 */
(PID.TID 0000.0001)                 2.144967968750000E+04,      /* J =  2 */
(PID.TID 0000.0001)                 2.147179101562500E+04,      /* J =  3 */
(PID.TID 0000.0001)                 2.149363476562500E+04,      /* J =  4 */
(PID.TID 0000.0001)                 2.151521484375000E+04,      /* J =  5 */
(PID.TID 0000.0001)                 2.153652734375000E+04,      /* J =  6 */
(PID.TID 0000.0001)                 2.155757812500000E+04,      /* J =  7 */
(PID.TID 0000.0001)                 2.157836718750000E+04,      /* J =  8 */
(PID.TID 0000.0001)                 2.159889453125000E+04,      /* J =  9 */
(PID.TID 0000.0001)                 2.161916406250000E+04,      /* J = 10 */
(PID.TID 0000.0001)                 2.163917187500000E+04,      /* J = 11 */
(PID.TID 0000.0001)                 2.165892382812500E+04,      /* J = 12 */
(PID.TID 0000.0001)                 2.167841601562500E+04,      /* J = 13 */
(PID.TID 0000.0001)                 2.169765429687500E+04,      /* J = 14 */
(PID.TID 0000.0001)                 2.171663867187500E+04,      /* J = 15 */
(PID.TID 0000.0001)                 2.173536914062500E+04,      /* J = 16 */
(PID.TID 0000.0001)                 2.175384570312500E+04,      /* J = 17 */
(PID.TID 0000.0001)                 2.177207031250000E+04,      /* J = 18 */
(PID.TID 0000.0001)                 2.179004296875000E+04,      /* J = 19 */
(PID.TID 0000.0001)                 2.180776757812500E+04,      /* J = 20 */
(PID.TID 0000.0001)                 2.182524218750000E+04,      /* J = 21 */
(PID.TID 0000.0001)                 2.184246875000000E+04,      /* J = 22 */
(PID.TID 0000.0001)                 2.185944726562500E+04,      /* J = 23 */
(PID.TID 0000.0001)                 2.187617968750000E+04,      /* J = 24 */
(PID.TID 0000.0001)                 2.189266601562500E+04,      /* J = 25 */
(PID.TID 0000.0001)                 2.190890820312500E+04,      /* J = 26 */
(PID.TID 0000.0001)                 2.192490625000000E+04,      /* J = 27 */
(PID.TID 0000.0001)                 2.194066210937500E+04,      /* J = 28 */
(PID.TID 0000.0001)                 2.195617382812500E+04,      /* J = 29 */
(PID.TID 0000.0001)                 2.197144531250000E+04,      /* J = 30 */
(PID.TID 0000.0001)                 2.198647460937500E+04,      /* J = 31 */
(PID.TID 0000.0001)                 2.200126367187500E+04,      /* J = 32 */
(PID.TID 0000.0001)                 2.201581445312500E+04,      /* J = 33 */
(PID.TID 0000.0001)                 2.203012695312500E+04,      /* J = 34 */
(PID.TID 0000.0001)                 2.204420117187500E+04,      /* J = 35 */
(PID.TID 0000.0001)                 2.205803710937500E+04,      /* J = 36 */
(PID.TID 0000.0001)                 2.207163867187500E+04,      /* J = 37 */
(PID.TID 0000.0001)                 2.208500195312500E+04,      /* J = 38 */
(PID.TID 0000.0001)                 2.209813281250000E+04,      /* J = 39 */
(PID.TID 0000.0001)                 2.211102734375000E+04,      /* J = 40 */
(PID.TID 0000.0001)                 2.212368750000000E+04,      /* J = 41 */
(PID.TID 0000.0001)                 2.213611523437500E+04,      /* J = 42 */
(PID.TID 0000.0001)                 2.214831054687500E+04,      /* J = 43 */
(PID.TID 0000.0001)                 2.216027343750000E+04,      /* J = 44 */
(PID.TID 0000.0001)                 2.217200390625000E+04,      /* J = 45 */
(PID.TID 0000.0001)                 2.218350585937500E+04,      /* J = 46 */
(PID.TID 0000.0001)                 2.219477539062500E+04,      /* J = 47 */
(PID.TID 0000.0001)                 2.220581640625000E+04,      /* J = 48 */
(PID.TID 0000.0001)                 2.221662695312500E+04,      /* J = 49 */
(PID.TID 0000.0001)                 2.222720898437500E+04,      /* J = 50 */
(PID.TID 0000.0001)                 2.223756250000000E+04,      /* J = 51 */
(PID.TID 0000.0001)                 2.224768945312500E+04,      /* J = 52 */
(PID.TID 0000.0001)                 2.225758984375000E+04,      /* J = 53 */
(PID.TID 0000.0001)                 2.226726171875000E+04,      /* J = 54 */
(PID.TID 0000.0001)                 2.227670898437500E+04,      /* J = 55 */
(PID.TID 0000.0001)                 2.228592968750000E+04,      /* J = 56 */
(PID.TID 0000.0001)                 2.229492382812500E+04,      /* J = 57 */
(PID.TID 0000.0001)                 2.230369335937500E+04,      /* J = 58 */
(PID.TID 0000.0001)                 2.231224023437500E+04,      /* J = 59 */
(PID.TID 0000.0001)                 2.232056250000000E+04,      /* J = 60 */
(PID.TID 0000.0001)                 2.232866015625000E+04,      /* J = 61 */
(PID.TID 0000.0001)                 2.233653320312500E+04,      /* J = 62 */
(PID.TID 0000.0001)                 2.234418554687500E+04,      /* J = 63 */
(PID.TID 0000.0001)                 2.235161523437500E+04,      /* J = 64 */
(PID.TID 0000.0001)                 2.235882226562500E+04,      /* J = 65 */
(PID.TID 0000.0001)                 2.236580664062500E+04,      /* J = 66 */
(PID.TID 0000.0001)                 2.237257031250000E+04,      /* J = 67 */
(PID.TID 0000.0001)                 2.237911328125000E+04,      /* J = 68 */
(PID.TID 0000.0001)                 2.238543359375000E+04,      /* J = 69 */
(PID.TID 0000.0001)                 2.239153515625000E+04,      /* J = 70 */
(PID.TID 0000.0001)                 2.239741601562500E+04,      /* J = 71 */
(PID.TID 0000.0001)                 2.240307617187500E+04       /* J = 72 */
(PID.TID 0000.0001)     ;
(PID.TID 0000.0001) dyC =  /* dyC(:,1,:,1) ( units: m ) */
(PID.TID 0000.0001)                 1.642122070312500E+04,      /* I =  1 */
(PID.TID 0000.0001)                 1.643041210937500E+04,      /* I =  2 */
(PID.TID 0000.0001)                 1.643973046875000E+04,      /* I =  3 */
(PID.TID 0000.0001)                 1.644917187500000E+04,      /* I =  4 */
(PID.TID 0000.0001)                 1.645873242187500E+04,      /* I =  5 */
(PID.TID 0000.0001)                 1.646840820312500E+04,      /* I =  6 */
(PID.TID 0000.0001)                 1.647819531250000E+04,      /* I =  7 */
(PID.TID 0000.0001)                 1.648809179687500E+04,      /* I =  8 */
(PID.TID 0000.0001)                 1.649808984375000E+04,      /* I =  9 */
(PID.TID 0000.0001)                 1.650818945312500E+04,      /* I = 10 */
(PID.TID 0000.0001)                 1.651838671875000E+04,      /* I = 11 */
(PID.TID 0000.0001)                 1.652867578125000E+04,      /* I = 12 */
(PID.TID 0000.0001)                 1.653905468750000E+04,      /* I = 13 */
(PID.TID 0000.0001)                 1.654952148437500E+04,      /* I = 14 */
(PID.TID 0000.0001)                 1.656006835937500E+04,      /* I = 15 */
(PID.TID 0000.0001)                 1.657069726562500E+04,      /* I = 16 */
(PID.TID 0000.0001)                 1.658140234375000E+04,      /* I = 17 */
(PID.TID 0000.0001)                 1.659217968750000E+04,      /* I = 18 */
(PID.TID 0000.0001)                 1.660302734375000E+04,      /* I = 19 */
(PID.TID 0000.0001)                 1.661394140625000E+04,      /* I = 20 */
(PID.TID 0000.0001)                 1.662491796875000E+04,      /* I = 21 */
(PID.TID 0000.0001)                 1.663595703125000E+04,      /* I = 22 */
(PID.TID 0000.0001)                 1.664705078125000E+04,      /* I = 23 */
(PID.TID 0000.0001)                 1.665820117187500E+04,      /* I = 24 */
(PID.TID 0000.0001)                 1.666940234375000E+04,      /* I = 25 */
(PID.TID 0000.0001)                 1.668065234375000E+04,      /* I = 26 */
(PID.TID 0000.0001)                 1.669194726562500E+04,      /* I = 27 */
(PID.TID 0000.0001)                 1.670328515625000E+04,      /* I = 28 */
(PID.TID 0000.0001)                 1.671466406250000E+04,      /* I = 29 */
(PID.TID 0000.0001)                 1.672608007812500E+04,      /* I = 30 */
(PID.TID 0000.0001)                 1.673753125000000E+04,      /* I = 31 */
(PID.TID 0000.0001)                 1.674901562500000E+04,      /* I = 32 */
(PID.TID 0000.0001)                 1.676052734375000E+04,      /* I = 33 */
(PID.TID 0000.0001)                 1.677206835937500E+04,      /* I = 34 */
(PID.TID 0000.0001)                 1.678363281250000E+04,      /* I = 35 */
(PID.TID 0000.0001)                 1.679521875000000E+04,      /* I = 36 */
(PID.TID 0000.0001)                 1.680682617187500E+04,      /* I = 37 */
(PID.TID 0000.0001)                 1.681844921875000E+04,      /* I = 38 */
(PID.TID 0000.0001)                 1.683008984375000E+04,      /* I = 39 */
(PID.TID 0000.0001)                 1.684174218750000E+04,      /* I = 40 */
(PID.TID 0000.0001)                 1.685340429687500E+04,      /* I = 41 */
(PID.TID 0000.0001)                 1.686507617187500E+04,      /* I = 42 */
(PID.TID 0000.0001)                 1.687675390625000E+04,      /* I = 43 */
(PID.TID 0000.0001)                 1.688843554687500E+04,      /* I = 44 */
(PID.TID 0000.0001)                 1.690012109375000E+04,      /* I = 45 */
(PID.TID 0000.0001)                 1.691180468750000E+04,      /* I = 46 */
(PID.TID 0000.0001)                 1.692348632812500E+04,      /* I = 47 */
(PID.TID 0000.0001)                 1.693516601562500E+04,      /* I = 48 */
(PID.TID 0000.0001)                 1.694683789062500E+04,      /* I = 49 */
(PID.TID 0000.0001)                 1.695850390625000E+04,      /* I = 50 */
(PID.TID 0000.0001)                 1.697016015625000E+04,      /* I = 51 */
(PID.TID 0000.0001)                 1.698180468750000E+04,      /* I = 52 */
(PID.TID 0000.0001)                 1.699343750000000E+04,      /* I = 53 */
(PID.TID 0000.0001)                 1.700505468750000E+04,      /* I = 54 */
(PID.TID 0000.0001)                 1.701665429687500E+04,      /* I = 55 */
(PID.TID 0000.0001)                 1.702823632812500E+04,      /* I = 56 */
(PID.TID 0000.0001)                 1.703979882812500E+04,      /* I = 57 */
(PID.TID 0000.0001)                 1.705134179687500E+04,      /* I = 58 */
(PID.TID 0000.0001)                 1.706285937500000E+04,      /* I = 59 */
(PID.TID 0000.0001)                 1.707435351562500E+04,      /* I = 60 */
(PID.TID 0000.0001)                 1.708582226562500E+04,      /* I = 61 */
(PID.TID 0000.0001)                 1.709726171875000E+04,      /* I = 62 */
(PID.TID 0000.0001)                 1.710867382812500E+04,      /* I = 63 */
(PID.TID 0000.0001)                 1.712005664062500E+04,      /* I = 64 */
(PID.TID 0000.0001)                 1.713140625000000E+04,      /* I = 65 */
(PID.TID 0000.0001)                 1.714272265625000E+04,      /* I = 66 */
(PID.TID 0000.0001)                 1.715400585937500E+04,      /* I = 67 */
(PID.TID 0000.0001)                 1.716525195312500E+04,      /* I = 68 */
(PID.TID 0000.0001)                 1.717646093750000E+04,      /* I = 69 */
(PID.TID 0000.0001)                 1.718763281250000E+04,      /* I = 70 */
(PID.TID 0000.0001)                 1.719876562500000E+04,      /* I = 71 */
(PID.TID 0000.0001)                 1.720985742187500E+04,      /* I = 72 */
(PID.TID 0000.0001)                 1.722090625000000E+04,      /* I = 73 */
(PID.TID 0000.0001)                 1.723191406250000E+04,      /* I = 74 */
(PID.TID 0000.0001)                 1.724287500000000E+04,      /* I = 75 */
(PID.TID 0000.0001)                 1.725379296875000E+04       /* I = 76 */
(PID.TID 0000.0001)     ;
(PID.TID 0000.0001) dyC =  /* dyC(1,:,1,:) ( units: m ) */
(PID.TID 0000.0001)                 1.642122070312500E+04,      /* J =  1 */
(PID.TID 0000.0001)                 1.641629687500000E+04,      /* J =  2 */
(PID.TID 0000.0001)                 1.641139062500000E+04,      /* J =  3 */
(PID.TID 0000.0001)                 1.640650195312500E+04,      /* J =  4 */
(PID.TID 0000.0001)                 1.640163476562500E+04,      /* J =  5 */
(PID.TID 0000.0001)                 1.639679101562500E+04,      /* J =  6 */
(PID.TID 0000.0001)                 1.639196679687500E+04,      /* J =  7 */
(PID.TID 0000.0001)                 1.638716992187500E+04,      /* J =  8 */
(PID.TID 0000.0001)                 1.638239550781250E+04,      /* J =  9 */
(PID.TID 0000.0001)                 1.637764843750000E+04,      /* J = 10 */
(PID.TID 0000.0001)                 1.637292773437500E+04,      /* J = 11 */
(PID.TID 0000.0001)                 1.636823632812500E+04,      /* J = 12 */
(PID.TID 0000.0001)                 1.636357324218750E+04,      /* J = 13 */
(PID.TID 0000.0001)                 1.635894140625000E+04,      /* J = 14 */
(PID.TID 0000.0001)                 1.635433984375000E+04,      /* J = 15 */
(PID.TID 0000.0001)                 1.634977148437500E+04,      /* J = 16 */
(PID.TID 0000.0001)                 1.634523632812500E+04,      /* J = 17 */
(PID.TID 0000.0001)                 1.634073437500000E+04,      /* J = 18 */
(PID.TID 0000.0001)                 1.633626855468750E+04,      /* J = 19 */
(PID.TID 0000.0001)                 1.633183789062500E+04,      /* J = 20 */
(PID.TID 0000.0001)                 1.632744433593750E+04,      /* J = 21 */
(PID.TID 0000.0001)                 1.632308789062500E+04,      /* J = 22 */
(PID.TID 0000.0001)                 1.631877050781250E+04,      /* J = 23 */
(PID.TID 0000.0001)                 1.631449218750000E+04,      /* J = 24 */
(PID.TID 0000.0001)                 1.631025488281250E+04,      /* J = 25 */
(PID.TID 0000.0001)                 1.630605761718750E+04,      /* J = 26 */
(PID.TID 0000.0001)                 1.630190234375000E+04,      /* J = 27 */
(PID.TID 0000.0001)                 1.629778906250000E+04,      /* J = 28 */
(PID.TID 0000.0001)                 1.629371875000000E+04,      /* J = 29 */
(PID.TID 0000.0001)                 1.628969335937500E+04,      /* J = 30 */
(PID.TID 0000.0001)                 1.628571191406250E+04,      /* J = 31 */
(PID.TID 0000.0001)                 1.628177539062500E+04,      /* J = 32 */
(PID.TID 0000.0001)                 1.627788574218750E+04,      /* J = 33 */
(PID.TID 0000.0001)                 1.627404199218750E+04,      /* J = 34 */
(PID.TID 0000.0001)                 1.627024609375000E+04,      /* J = 35 */
(PID.TID 0000.0001)                 1.626649804687500E+04,      /* J = 36 */
(PID.TID 0000.0001)                 1.626279785156250E+04,      /* J = 37 */
(PID.TID 0000.0001)                 1.625914746093750E+04,      /* J = 38 */
(PID.TID 0000.0001)                 1.625554687500000E+04,      /* J = 39 */
(PID.TID 0000.0001)                 1.625199609375000E+04,      /* J = 40 */
(PID.TID 0000.0001)                 1.624849609375000E+04,      /* J = 41 */
(PID.TID 0000.0001)                 1.624504785156250E+04,      /* J = 42 */
(PID.TID 0000.0001)                 1.624165136718750E+04,      /* J = 43 */
(PID.TID 0000.0001)                 1.623830664062500E+04,      /* J = 44 */
(PID.TID 0000.0001)                 1.623501562500000E+04,      /* J = 45 */
(PID.TID 0000.0001)                 1.623177832031250E+04,      /* J = 46 */
(PID.TID 0000.0001)                 1.622859472656250E+04,      /* J = 47 */
(PID.TID 0000.0001)                 1.622546582031250E+04,      /* J = 48 */
(PID.TID 0000.0001)                 1.622239062500000E+04,      /* J = 49 */
(PID.TID 0000.0001)                 1.621937207031250E+04,      /* J = 50 */
(PID.TID 0000.0001)                 1.621640917968750E+04,      /* J = 51 */
(PID.TID 0000.0001)                 1.621350195312500E+04,      /* J = 52 */
(PID.TID 0000.0001)                 1.621065136718750E+04,      /* J = 53 */
(PID.TID 0000.0001)                 1.620785839843750E+04,      /* J = 54 */
(PID.TID 0000.0001)                 1.620512207031250E+04,      /* J = 55 */
(PID.TID 0000.0001)                 1.620244433593750E+04,      /* J = 56 */
(PID.TID 0000.0001)                 1.619982421875000E+04,      /* J = 57 */
(PID.TID 0000.0001)                 1.619726269531250E+04,      /* J = 58 */
(PID.TID 0000.0001)                 1.619475976562500E+04,      /* J = 59 */
(PID.TID 0000.0001)                 1.619231640625000E+04,      /* J = 60 */
(PID.TID 0000.0001)                 1.618993359375000E+04,      /* J = 61 */
(PID.TID 0000.0001)                 1.618760937500000E+04,      /* J = 62 */
(PID.TID 0000.0001)                 1.618534570312500E+04,      /* J = 63 */
(PID.TID 0000.0001)                 1.618314257812500E+04,      /* J = 64 */
(PID.TID 0000.0001)                 1.618100000000000E+04,      /* J = 65 */
(PID.TID 0000.0001)                 1.617891894531250E+04,      /* J = 66 */
(PID.TID 0000.0001)                 1.617689941406250E+04,      /* J = 67 */
(PID.TID 0000.0001)                 1.617494140625000E+04,      /* J = 68 */
(PID.TID 0000.0001)                 1.617304492187500E+04,      /* J = 69 */
(PID.TID 0000.0001)                 1.617121093750000E+04,      /* J = 70 */
(PID.TID 0000.0001)                 1.616943847656250E+04,      /* J = 71 */
(PID.TID 0000.0001)                 1.616772949218750E+04       /* J = 72 */
(PID.TID 0000.0001)     ;
(PID.TID 0000.0001) dxV =  /* dxV(:,1,:,1) ( units: m ) */
(PID.TID 0000.0001)                 2.141601171875000E+04,      /* I =  1 */
(PID.TID 0000.0001)                 2.135807226562500E+04,      /* I =  2 */
(PID.TID 0000.0001)                 2.130085351562500E+04,      /* I =  3 */
(PID.TID 0000.0001)                 2.124434570312500E+04,      /* I =  4 */
(PID.TID 0000.0001)                 2.118853515625000E+04,      /* I =  5 */
(PID.TID 0000.0001)                 2.113341015625000E+04,      /* I =  6 */
(PID.TID 0000.0001)                 2.107896289062500E+04,      /* I =  7 */
(PID.TID 0000.0001)                 2.102518164062500E+04,      /* I =  8 */
(PID.TID 0000.0001)                 2.097205273437500E+04,      /* I =  9 */
(PID.TID 0000.0001)                 2.091957031250000E+04,      /* I = 10 */
(PID.TID 0000.0001)                 2.086772070312500E+04,      /* I = 11 */
(PID.TID 0000.0001)                 2.081649609375000E+04,      /* I = 12 */
(PID.TID 0000.0001)                 2.076588476562500E+04,      /* I = 13 */
(PID.TID 0000.0001)                 2.071587890625000E+04,      /* I = 14 */
(PID.TID 0000.0001)                 2.066646875000000E+04,      /* I = 15 */
(PID.TID 0000.0001)                 2.061764453125000E+04,      /* I = 16 */
(PID.TID 0000.0001)                 2.056939843750000E+04,      /* I = 17 */
(PID.TID 0000.0001)                 2.052171875000000E+04,      /* I = 18 */
(PID.TID 0000.0001)                 2.047459960937500E+04,      /* I = 19 */
(PID.TID 0000.0001)                 2.042803125000000E+04,      /* I = 20 */
(PID.TID 0000.0001)                 2.038200390625000E+04,      /* I = 21 */
(PID.TID 0000.0001)                 2.033651367187500E+04,      /* I = 22 */
(PID.TID 0000.0001)                 2.029154882812500E+04,      /* I = 23 */
(PID.TID 0000.0001)                 2.024710156250000E+04,      /* I = 24 */
(PID.TID 0000.0001)                 2.020316601562500E+04,      /* I = 25 */
(PID.TID 0000.0001)                 2.015973437500000E+04,      /* I = 26 */
(PID.TID 0000.0001)                 2.011679882812500E+04,      /* I = 27 */
(PID.TID 0000.0001)                 2.007435156250000E+04,      /* I = 28 */
(PID.TID 0000.0001)                 2.003238476562500E+04,      /* I = 29 */
(PID.TID 0000.0001)                 1.999089257812500E+04,      /* I = 30 */
(PID.TID 0000.0001)                 1.994986914062500E+04,      /* I = 31 */
(PID.TID 0000.0001)                 1.990930664062500E+04,      /* I = 32 */
(PID.TID 0000.0001)                 1.986919921875000E+04,      /* I = 33 */
(PID.TID 0000.0001)                 1.982953906250000E+04,      /* I = 34 */
(PID.TID 0000.0001)                 1.979032031250000E+04,      /* I = 35 */
(PID.TID 0000.0001)                 1.975153906250000E+04,      /* I = 36 */
(PID.TID 0000.0001)                 1.971318554687500E+04,      /* I = 37 */
(PID.TID 0000.0001)                 1.967525585937500E+04,      /* I = 38 */
(PID.TID 0000.0001)                 1.963774414062500E+04,      /* I = 39 */
(PID.TID 0000.0001)                 1.960064648437500E+04,      /* I = 40 */
(PID.TID 0000.0001)                 1.956395312500000E+04,      /* I = 41 */
(PID.TID 0000.0001)                 1.952766210937500E+04,      /* I = 42 */
(PID.TID 0000.0001)                 1.949176757812500E+04,      /* I = 43 */
(PID.TID 0000.0001)                 1.945626171875000E+04,      /* I = 44 */
(PID.TID 0000.0001)                 1.942114257812500E+04,      /* I = 45 */
(PID.TID 0000.0001)                 1.938640429687500E+04,      /* I = 46 */
(PID.TID 0000.0001)                 1.935204101562500E+04,      /* I = 47 */
(PID.TID 0000.0001)                 1.931804882812500E+04,      /* I = 48 */
(PID.TID 0000.0001)                 1.928442382812500E+04,      /* I = 49 */
(PID.TID 0000.0001)                 1.925116015625000E+04,      /* I = 50 */
(PID.TID 0000.0001)                 1.921825195312500E+04,      /* I = 51 */
(PID.TID 0000.0001)                 1.918569726562500E+04,      /* I = 52 */
(PID.TID 0000.0001)                 1.915349023437500E+04,      /* I = 53 */
(PID.TID 0000.0001)                 1.912162890625000E+04,      /* I = 54 */
(PID.TID 0000.0001)                 1.909010546875000E+04,      /* I = 55 */
(PID.TID 0000.0001)                 1.905891992187500E+04,      /* I = 56 */
(PID.TID 0000.0001)                 1.902806445312500E+04,      /* I = 57 */
(PID.TID 0000.0001)                 1.899753710937500E+04,      /* I = 58 */
(PID.TID 0000.0001)                 1.896733398437500E+04,      /* I = 59 */
(PID.TID 0000.0001)                 1.893745117187500E+04,      /* I = 60 */
(PID.TID 0000.0001)                 1.890788476562500E+04,      /* I = 61 */
(PID.TID 0000.0001)                 1.887863085937500E+04,      /* I = 62 */
(PID.TID 0000.0001)                 1.884968750000000E+04,      /* I = 63 */
(PID.TID 0000.0001)                 1.882105078125000E+04,      /* I = 64 */
(PID.TID 0000.0001)                 1.879271484375000E+04,      /* I = 65 */
(PID.TID 0000.0001)                 1.876467968750000E+04,      /* I = 66 */
(PID.TID 0000.0001)                 1.873693945312500E+04,      /* I = 67 */
(PID.TID 0000.0001)                 1.870949414062500E+04,      /* I = 68 */
(PID.TID 0000.0001)                 1.868233593750000E+04,      /* I = 69 */
(PID.TID 0000.0001)                 1.865546679687500E+04,      /* I = 70 */
(PID.TID 0000.0001)                 1.862888085937500E+04,      /* I = 71 */
(PID.TID 0000.0001)                 1.860257421875000E+04,      /* I = 72 */
(PID.TID 0000.0001)                 1.857654687500000E+04,      /* I = 73 */
(PID.TID 0000.0001)                 1.855079492187500E+04,      /* I = 74 */
(PID.TID 0000.0001)                 1.852531445312500E+04,      /* I = 75 */
(PID.TID 0000.0001)                 1.850010351562500E+04       /* I = 76 */
(PID.TID 0000.0001)     ;
(PID.TID 0000.0001) dxV =  /* dxV(1,:,1,:) ( units: m ) */
(PID.TID 0000.0001)                 2.141601171875000E+04,      /* J =  1 */
(PID.TID 0000.0001)                 2.143852539062500E+04,      /* J =  2 */
(PID.TID 0000.0001)                 2.146076953125000E+04,      /* J =  3 */
(PID.TID 0000.0001)                 2.148274609375000E+04,      /* J =  4 */
(PID.TID 0000.0001)                 2.150445703125000E+04,      /* J =  5 */
(PID.TID 0000.0001)                 2.152590429687500E+04,      /* J =  6 */
(PID.TID 0000.0001)                 2.154708593750000E+04,      /* J =  7 */
(PID.TID 0000.0001)                 2.156800585937500E+04,      /* J =  8 */
(PID.TID 0000.0001)                 2.158866406250000E+04,      /* J =  9 */
(PID.TID 0000.0001)                 2.160906250000000E+04,      /* J = 10 */
(PID.TID 0000.0001)                 2.162919921875000E+04,      /* J = 11 */
(PID.TID 0000.0001)                 2.164908007812500E+04,      /* J = 12 */
(PID.TID 0000.0001)                 2.166870117187500E+04,      /* J = 13 */
(PID.TID 0000.0001)                 2.168806835937500E+04,      /* J = 14 */
(PID.TID 0000.0001)                 2.170717968750000E+04,      /* J = 15 */
(PID.TID 0000.0001)                 2.172603515625000E+04,      /* J = 16 */
(PID.TID 0000.0001)                 2.174463867187500E+04,      /* J = 17 */
(PID.TID 0000.0001)                 2.176298828125000E+04,      /* J = 18 */
(PID.TID 0000.0001)                 2.178108789062500E+04,      /* J = 19 */
(PID.TID 0000.0001)                 2.179893750000000E+04,      /* J = 20 */
(PID.TID 0000.0001)                 2.181653515625000E+04,      /* J = 21 */
(PID.TID 0000.0001)                 2.183388671875000E+04,      /* J = 22 */
(PID.TID 0000.0001)                 2.185098828125000E+04,      /* J = 23 */
(PID.TID 0000.0001)                 2.186784375000000E+04,      /* J = 24 */
(PID.TID 0000.0001)                 2.188445312500000E+04,      /* J = 25 */
(PID.TID 0000.0001)                 2.190081835937500E+04,      /* J = 26 */
(PID.TID 0000.0001)                 2.191693750000000E+04,      /* J = 27 */
(PID.TID 0000.0001)                 2.193281445312500E+04,      /* J = 28 */
(PID.TID 0000.0001)                 2.194844726562500E+04,      /* J = 29 */
(PID.TID 0000.0001)                 2.196383984375000E+04,      /* J = 30 */
(PID.TID 0000.0001)                 2.197899023437500E+04,      /* J = 31 */
(PID.TID 0000.0001)                 2.199390039062500E+04,      /* J = 32 */
(PID.TID 0000.0001)                 2.200857031250000E+04,      /* J = 33 */
(PID.TID 0000.0001)                 2.202300000000000E+04,      /* J = 34 */
(PID.TID 0000.0001)                 2.203719335937500E+04,      /* J = 35 */
(PID.TID 0000.0001)                 2.205114843750000E+04,      /* J = 36 */
(PID.TID 0000.0001)                 2.206486718750000E+04,      /* J = 37 */
(PID.TID 0000.0001)                 2.207834960937500E+04,      /* J = 38 */
(PID.TID 0000.0001)                 2.209159570312500E+04,      /* J = 39 */
(PID.TID 0000.0001)                 2.210460937500000E+04,      /* J = 40 */
(PID.TID 0000.0001)                 2.211738671875000E+04,      /* J = 41 */
(PID.TID 0000.0001)                 2.212992968750000E+04,      /* J = 42 */
(PID.TID 0000.0001)                 2.214224218750000E+04,      /* J = 43 */
(PID.TID 0000.0001)                 2.215432031250000E+04,      /* J = 44 */
(PID.TID 0000.0001)                 2.216616796875000E+04,      /* J = 45 */
(PID.TID 0000.0001)                 2.217778320312500E+04,      /* J = 46 */
(PID.TID 0000.0001)                 2.218916796875000E+04,      /* J = 47 */
(PID.TID 0000.0001)                 2.220032421875000E+04,      /* J = 48 */
(PID.TID 0000.0001)                 2.221125000000000E+04,      /* J = 49 */
(PID.TID 0000.0001)                 2.222194726562500E+04,      /* J = 50 */
(PID.TID 0000.0001)                 2.223241406250000E+04,      /* J = 51 */
(PID.TID 0000.0001)                 2.224265429687500E+04,      /* J = 52 */
(PID.TID 0000.0001)                 2.225266796875000E+04,      /* J = 53 */
(PID.TID 0000.0001)                 2.226245312500000E+04,      /* J = 54 */
(PID.TID 0000.0001)                 2.227201367187500E+04,      /* J = 55 */
(PID.TID 0000.0001)                 2.228134765625000E+04,      /* J = 56 */
(PID.TID 0000.0001)                 2.229045507812500E+04,      /* J = 57 */
(PID.TID 0000.0001)                 2.229933789062500E+04,      /* J = 58 */
(PID.TID 0000.0001)                 2.230799414062500E+04,      /* J = 59 */
(PID.TID 0000.0001)                 2.231642968750000E+04,      /* J = 60 */
(PID.TID 0000.0001)                 2.232463867187500E+04,      /* J = 61 */
(PID.TID 0000.0001)                 2.233262500000000E+04,      /* J = 62 */
(PID.TID 0000.0001)                 2.234038867187500E+04,      /* J = 63 */
(PID.TID 0000.0001)                 2.234792773437500E+04,      /* J = 64 */
(PID.TID 0000.0001)                 2.235524609375000E+04,      /* J = 65 */
(PID.TID 0000.0001)                 2.236234179687500E+04,      /* J = 66 */
(PID.TID 0000.0001)                 2.236921679687500E+04,      /* J = 67 */
(PID.TID 0000.0001)                 2.237586914062500E+04,      /* J = 68 */
(PID.TID 0000.0001)                 2.238230078125000E+04,      /* J = 69 */
(PID.TID 0000.0001)                 2.238851171875000E+04,      /* J = 70 */
(PID.TID 0000.0001)                 2.239450390625000E+04,      /* J = 71 */
(PID.TID 0000.0001)                 2.240027343750000E+04       /* J = 72 */
(PID.TID 0000.0001)     ;
(PID.TID 0000.0001) dyU =  /* dyU(:,1,:,1) ( units: m ) */
(PID.TID 0000.0001)                 1.641667382812500E+04,      /* I =  1 */
(PID.TID 0000.0001)                 1.642580078125000E+04,      /* I =  2 */
(PID.TID 0000.0001)                 1.643505664062500E+04,      /* I =  3 */
(PID.TID 0000.0001)                 1.644443750000000E+04,      /* I =  4 */
(PID.TID 0000.0001)                 1.645393750000000E+04,      /* I =  5 */
(PID.TID 0000.0001)                 1.646355664062500E+04,      /* I =  6 */
(PID.TID 0000.0001)                 1.647328906250000E+04,      /* I =  7 */
(PID.TID 0000.0001)                 1.648313085937500E+04,      /* I =  8 */
(PID.TID 0000.0001)                 1.649307812500000E+04,      /* I =  9 */
(PID.TID 0000.0001)                 1.650312695312500E+04,      /* I = 10 */
(PID.TID 0000.0001)                 1.651327539062500E+04,      /* I = 11 */
(PID.TID 0000.0001)                 1.652351953125000E+04,      /* I = 12 */
(PID.TID 0000.0001)                 1.653385351562500E+04,      /* I = 13 */
(PID.TID 0000.0001)                 1.654427734375000E+04,      /* I = 14 */
(PID.TID 0000.0001)                 1.655478515625000E+04,      /* I = 15 */
(PID.TID 0000.0001)                 1.656537304687500E+04,      /* I = 16 */
(PID.TID 0000.0001)                 1.657604101562500E+04,      /* I = 17 */
(PID.TID 0000.0001)                 1.658678125000000E+04,      /* I = 18 */
(PID.TID 0000.0001)                 1.659759570312500E+04,      /* I = 19 */
(PID.TID 0000.0001)                 1.660847656250000E+04,      /* I = 20 */
(PID.TID 0000.0001)                 1.661942187500000E+04,      /* I = 21 */
(PID.TID 0000.0001)                 1.663042968750000E+04,      /* I = 22 */
(PID.TID 0000.0001)                 1.664149609375000E+04,      /* I = 23 */
(PID.TID 0000.0001)                 1.665261914062500E+04,      /* I = 24 */
(PID.TID 0000.0001)                 1.666379492187500E+04,      /* I = 25 */
(PID.TID 0000.0001)                 1.667502148437500E+04,      /* I = 26 */
(PID.TID 0000.0001)                 1.668629492187500E+04,      /* I = 27 */
(PID.TID 0000.0001)                 1.669761132812500E+04,      /* I = 28 */
(PID.TID 0000.0001)                 1.670897070312500E+04,      /* I = 29 */
(PID.TID 0000.0001)                 1.672036718750000E+04,      /* I = 30 */
(PID.TID 0000.0001)                 1.673180273437500E+04,      /* I = 31 */
(PID.TID 0000.0001)                 1.674326953125000E+04,      /* I = 32 */
(PID.TID 0000.0001)                 1.675476757812500E+04,      /* I = 33 */
(PID.TID 0000.0001)                 1.676629492187500E+04,      /* I = 34 */
(PID.TID 0000.0001)                 1.677784765625000E+04,      /* I = 35 */
(PID.TID 0000.0001)                 1.678942382812500E+04,      /* I = 36 */
(PID.TID 0000.0001)                 1.680101953125000E+04,      /* I = 37 */
(PID.TID 0000.0001)                 1.681263671875000E+04,      /* I = 38 */
(PID.TID 0000.0001)                 1.682426757812500E+04,      /* I = 39 */
(PID.TID 0000.0001)                 1.683591406250000E+04,      /* I = 40 */
(PID.TID 0000.0001)                 1.684757226562500E+04,      /* I = 41 */
(PID.TID 0000.0001)                 1.685924023437500E+04,      /* I = 42 */
(PID.TID 0000.0001)                 1.687091406250000E+04,      /* I = 43 */
(PID.TID 0000.0001)                 1.688259375000000E+04,      /* I = 44 */
(PID.TID 0000.0001)                 1.689427734375000E+04,      /* I = 45 */
(PID.TID 0000.0001)                 1.690596289062500E+04,      /* I = 46 */
(PID.TID 0000.0001)                 1.691764648437500E+04,      /* I = 47 */
(PID.TID 0000.0001)                 1.692932617187500E+04,      /* I = 48 */
(PID.TID 0000.0001)                 1.694100390625000E+04,      /* I = 49 */
(PID.TID 0000.0001)                 1.695267187500000E+04,      /* I = 50 */
(PID.TID 0000.0001)                 1.696433398437500E+04,      /* I = 51 */
(PID.TID 0000.0001)                 1.697598437500000E+04,      /* I = 52 */
(PID.TID 0000.0001)                 1.698762304687500E+04,      /* I = 53 */
(PID.TID 0000.0001)                 1.699924804687500E+04,      /* I = 54 */
(PID.TID 0000.0001)                 1.701085546875000E+04,      /* I = 55 */
(PID.TID 0000.0001)                 1.702244726562500E+04,      /* I = 56 */
(PID.TID 0000.0001)                 1.703402148437500E+04,      /* I = 57 */
(PID.TID 0000.0001)                 1.704557226562500E+04,      /* I = 58 */
(PID.TID 0000.0001)                 1.705710351562500E+04,      /* I = 59 */
(PID.TID 0000.0001)                 1.706860937500000E+04,      /* I = 60 */
(PID.TID 0000.0001)                 1.708009179687500E+04,      /* I = 61 */
(PID.TID 0000.0001)                 1.709154492187500E+04,      /* I = 62 */
(PID.TID 0000.0001)                 1.710297265625000E+04,      /* I = 63 */
(PID.TID 0000.0001)                 1.711436914062500E+04,      /* I = 64 */
(PID.TID 0000.0001)                 1.712573437500000E+04,      /* I = 65 */
(PID.TID 0000.0001)                 1.713706835937500E+04,      /* I = 66 */
(PID.TID 0000.0001)                 1.714836718750000E+04,      /* I = 67 */
(PID.TID 0000.0001)                 1.715963281250000E+04,      /* I = 68 */
(PID.TID 0000.0001)                 1.717086132812500E+04,      /* I = 69 */
(PID.TID 0000.0001)                 1.718205273437500E+04,      /* I = 70 */
(PID.TID 0000.0001)                 1.719320312500000E+04,      /* I = 71 */
(PID.TID 0000.0001)                 1.720431640625000E+04,      /* I = 72 */
(PID.TID 0000.0001)                 1.721538671875000E+04,      /* I = 73 */
(PID.TID 0000.0001)                 1.722641601562500E+04,      /* I = 74 */
(PID.TID 0000.0001)                 1.723740039062500E+04,      /* I = 75 */
(PID.TID 0000.0001)                 1.724833984375000E+04       /* I = 76 */
(PID.TID 0000.0001)     ;
(PID.TID 0000.0001) dyU =  /* dyU(1,:,1,:) ( units: m ) */
(PID.TID 0000.0001)                 1.641667382812500E+04,      /* J =  1 */
(PID.TID 0000.0001)                 1.641179492187500E+04,      /* J =  2 */
(PID.TID 0000.0001)                 1.640693554687500E+04,      /* J =  3 */
(PID.TID 0000.0001)                 1.640209179687500E+04,      /* J =  4 */
(PID.TID 0000.0001)                 1.639726953125000E+04,      /* J =  5 */
(PID.TID 0000.0001)                 1.639246679687500E+04,      /* J =  6 */
(PID.TID 0000.0001)                 1.638768554687500E+04,      /* J =  7 */
(PID.TID 0000.0001)                 1.638292968750000E+04,      /* J =  8 */
(PID.TID 0000.0001)                 1.637819628906250E+04,      /* J =  9 */
(PID.TID 0000.0001)                 1.637348925781250E+04,      /* J = 10 */
(PID.TID 0000.0001)                 1.636880761718750E+04,      /* J = 11 */
(PID.TID 0000.0001)                 1.636415429687500E+04,      /* J = 12 */
(PID.TID 0000.0001)                 1.635952929687500E+04,      /* J = 13 */
(PID.TID 0000.0001)                 1.635493359375000E+04,      /* J = 14 */
(PID.TID 0000.0001)                 1.635036914062500E+04,      /* J = 15 */
(PID.TID 0000.0001)                 1.634583593750000E+04,      /* J = 16 */
(PID.TID 0000.0001)                 1.634133496093750E+04,      /* J = 17 */
(PID.TID 0000.0001)                 1.633686816406250E+04,      /* J = 18 */
(PID.TID 0000.0001)                 1.633243457031250E+04,      /* J = 19 */
(PID.TID 0000.0001)                 1.632803710937500E+04,      /* J = 20 */
(PID.TID 0000.0001)                 1.632367578125000E+04,      /* J = 21 */
(PID.TID 0000.0001)                 1.631935156250000E+04,      /* J = 22 */
(PID.TID 0000.0001)                 1.631506542968750E+04,      /* J = 23 */
(PID.TID 0000.0001)                 1.631081738281250E+04,      /* J = 24 */
(PID.TID 0000.0001)                 1.630660937500000E+04,      /* J = 25 */
(PID.TID 0000.0001)                 1.630244140625000E+04,      /* J = 26 */
(PID.TID 0000.0001)                 1.629831445312500E+04,      /* J = 27 */
(PID.TID 0000.0001)                 1.629422949218750E+04,      /* J = 28 */
(PID.TID 0000.0001)                 1.629018652343750E+04,      /* J = 29 */
(PID.TID 0000.0001)                 1.628618750000000E+04,      /* J = 30 */
(PID.TID 0000.0001)                 1.628223242187500E+04,      /* J = 31 */
(PID.TID 0000.0001)                 1.627832226562500E+04,      /* J = 32 */
(PID.TID 0000.0001)                 1.627445800781250E+04,      /* J = 33 */
(PID.TID 0000.0001)                 1.627063867187500E+04,      /* J = 34 */
(PID.TID 0000.0001)                 1.626686718750000E+04,      /* J = 35 */
(PID.TID 0000.0001)                 1.626314257812500E+04,      /* J = 36 */
(PID.TID 0000.0001)                 1.625946582031250E+04,      /* J = 37 */
(PID.TID 0000.0001)                 1.625583789062500E+04,      /* J = 38 */
(PID.TID 0000.0001)                 1.625225878906250E+04,      /* J = 39 */
(PID.TID 0000.0001)                 1.624873046875000E+04,      /* J = 40 */
(PID.TID 0000.0001)                 1.624525195312500E+04,      /* J = 41 */
(PID.TID 0000.0001)                 1.624182421875000E+04,      /* J = 42 */
(PID.TID 0000.0001)                 1.623844824218750E+04,      /* J = 43 */
(PID.TID 0000.0001)                 1.623512402343750E+04,      /* J = 44 */
(PID.TID 0000.0001)                 1.623185156250000E+04,      /* J = 45 */
(PID.TID 0000.0001)                 1.622863378906250E+04,      /* J = 46 */
(PID.TID 0000.0001)                 1.622546777343750E+04,      /* J = 47 */
(PID.TID 0000.0001)                 1.622235742187500E+04,      /* J = 48 */
(PID.TID 0000.0001)                 1.621930078125000E+04,      /* J = 49 */
(PID.TID 0000.0001)                 1.621629882812500E+04,      /* J = 50 */
(PID.TID 0000.0001)                 1.621335253906250E+04,      /* J = 51 */
(PID.TID 0000.0001)                 1.621046191406250E+04,      /* J = 52 */
(PID.TID 0000.0001)                 1.620762695312500E+04,      /* J = 53 */
(PID.TID 0000.0001)                 1.620484960937500E+04,      /* J = 54 */
(PID.TID 0000.0001)                 1.620212890625000E+04,      /* J = 55 */
(PID.TID 0000.0001)                 1.619946484375000E+04,      /* J = 56 */
(PID.TID 0000.0001)                 1.619685937500000E+04,      /* J = 57 */
(PID.TID 0000.0001)                 1.619431152343750E+04,      /* J = 58 */
(PID.TID 0000.0001)                 1.619182324218750E+04,      /* J = 59 */
(PID.TID 0000.0001)                 1.618939257812500E+04,      /* J = 60 */
(PID.TID 0000.0001)                 1.618702148437500E+04,      /* J = 61 */
(PID.TID 0000.0001)                 1.618471093750000E+04,      /* J = 62 */
(PID.TID 0000.0001)                 1.618245898437500E+04,      /* J = 63 */
(PID.TID 0000.0001)                 1.618026757812500E+04,      /* J = 64 */
(PID.TID 0000.0001)                 1.617813671875000E+04,      /* J = 65 */
(PID.TID 0000.0001)                 1.617606640625000E+04,      /* J = 66 */
(PID.TID 0000.0001)                 1.617405664062500E+04,      /* J = 67 */
(PID.TID 0000.0001)                 1.617210839843750E+04,      /* J = 68 */
(PID.TID 0000.0001)                 1.617022265625000E+04,      /* J = 69 */
(PID.TID 0000.0001)                 1.616839746093750E+04,      /* J = 70 */
(PID.TID 0000.0001)                 1.616663476562500E+04,      /* J = 71 */
(PID.TID 0000.0001)                 1.616493457031250E+04       /* J = 72 */
(PID.TID 0000.0001)     ;
(PID.TID 0000.0001) rA  =  /* rA (:,1,:,1) ( units: m^2 ) */
(PID.TID 0000.0001)                 3.513317440000000E+08,      /* I =  1 */
(PID.TID 0000.0001)                 3.505800640000000E+08,      /* I =  2 */
(PID.TID 0000.0001)                 3.498417920000000E+08,      /* I =  3 */
(PID.TID 0000.0001)                 3.491166400000000E+08,      /* I =  4 */
(PID.TID 0000.0001)                 3.484043200000000E+08,      /* I =  5 */
(PID.TID 0000.0001)                 3.477046080000000E+08,      /* I =  6 */
(PID.TID 0000.0001)                 3.470172160000000E+08,      /* I =  7 */
(PID.TID 0000.0001)                 3.463419200000000E+08,      /* I =  8 */
(PID.TID 0000.0001)                 3.456784640000000E+08,      /* I =  9 */
(PID.TID 0000.0001)                 3.450266240000000E+08,      /* I = 10 */
(PID.TID 0000.0001)                 3.443861120000000E+08,      /* I = 11 */
(PID.TID 0000.0001)                 3.437567360000000E+08,      /* I = 12 */
(PID.TID 0000.0001)                 3.431382400000000E+08,      /* I = 13 */
(PID.TID 0000.0001)                 3.425304320000000E+08,      /* I = 14 */
(PID.TID 0000.0001)                 3.419330880000000E+08,      /* I = 15 */
(PID.TID 0000.0001)                 3.413459840000000E+08,      /* I = 16 */
(PID.TID 0000.0001)                 3.407688960000000E+08,      /* I = 17 */
(PID.TID 0000.0001)                 3.402016640000000E+08,      /* I = 18 */
(PID.TID 0000.0001)                 3.396440640000000E+08,      /* I = 19 */
(PID.TID 0000.0001)                 3.390958720000000E+08,      /* I = 20 */
(PID.TID 0000.0001)                 3.385569280000000E+08,      /* I = 21 */
(PID.TID 0000.0001)                 3.380270400000000E+08,      /* I = 22 */
(PID.TID 0000.0001)                 3.375060480000000E+08,      /* I = 23 */
(PID.TID 0000.0001)                 3.369937280000000E+08,      /* I = 24 */
(PID.TID 0000.0001)                 3.364899200000000E+08,      /* I = 25 */
(PID.TID 0000.0001)                 3.359944640000000E+08,      /* I = 26 */
(PID.TID 0000.0001)                 3.355071680000000E+08,      /* I = 27 */
(PID.TID 0000.0001)                 3.350278720000000E+08,      /* I = 28 */
(PID.TID 0000.0001)                 3.345564480000000E+08,      /* I = 29 */
(PID.TID 0000.0001)                 3.340927040000000E+08,      /* I = 30 */
(PID.TID 0000.0001)                 3.336365120000000E+08,      /* I = 31 */
(PID.TID 0000.0001)                 3.331876800000000E+08,      /* I = 32 */
(PID.TID 0000.0001)                 3.327461120000000E+08,      /* I = 33 */
(PID.TID 0000.0001)                 3.323116160000000E+08,      /* I = 34 */
(PID.TID 0000.0001)                 3.318840640000000E+08,      /* I = 35 */
(PID.TID 0000.0001)                 3.314633600000000E+08,      /* I = 36 */
(PID.TID 0000.0001)                 3.310493120000000E+08,      /* I = 37 */
(PID.TID 0000.0001)                 3.306418240000000E+08,      /* I = 38 */
(PID.TID 0000.0001)                 3.302407360000000E+08,      /* I = 39 */
(PID.TID 0000.0001)                 3.298459520000000E+08,      /* I = 40 */
(PID.TID 0000.0001)                 3.294573440000000E+08,      /* I = 41 */
(PID.TID 0000.0001)                 3.290747840000000E+08,      /* I = 42 */
(PID.TID 0000.0001)                 3.286981440000000E+08,      /* I = 43 */
(PID.TID 0000.0001)                 3.283273280000000E+08,      /* I = 44 */
(PID.TID 0000.0001)                 3.279622080000000E+08,      /* I = 45 */
(PID.TID 0000.0001)                 3.276027200000000E+08,      /* I = 46 */
(PID.TID 0000.0001)                 3.272486720000000E+08,      /* I = 47 */
(PID.TID 0000.0001)                 3.269000320000000E+08,      /* I = 48 */
(PID.TID 0000.0001)                 3.265566720000000E+08,      /* I = 49 */
(PID.TID 0000.0001)                 3.262184960000000E+08,      /* I = 50 */
(PID.TID 0000.0001)                 3.258854080000000E+08,      /* I = 51 */
(PID.TID 0000.0001)                 3.255572800000000E+08,      /* I = 52 */
(PID.TID 0000.0001)                 3.252340480000000E+08,      /* I = 53 */
(PID.TID 0000.0001)                 3.249156480000000E+08,      /* I = 54 */
(PID.TID 0000.0001)                 3.246019520000000E+08,      /* I = 55 */
(PID.TID 0000.0001)                 3.242928640000000E+08,      /* I = 56 */
(PID.TID 0000.0001)                 3.239883200000000E+08,      /* I = 57 */
(PID.TID 0000.0001)                 3.236882560000000E+08,      /* I = 58 */
(PID.TID 0000.0001)                 3.233925440000000E+08,      /* I = 59 */
(PID.TID 0000.0001)                 3.231011520000000E+08,      /* I = 60 */
(PID.TID 0000.0001)                 3.228139840000000E+08,      /* I = 61 */
(PID.TID 0000.0001)                 3.225309440000000E+08,      /* I = 62 */
(PID.TID 0000.0001)                 3.222519680000000E+08,      /* I = 63 */
(PID.TID 0000.0001)                 3.219769920000000E+08,      /* I = 64 */
(PID.TID 0000.0001)                 3.217059520000000E+08,      /* I = 65 */
(PID.TID 0000.0001)                 3.214387840000000E+08,      /* I = 66 */
(PID.TID 0000.0001)                 3.211753920000000E+08,      /* I = 67 */
(PID.TID 0000.0001)                 3.209157440000000E+08,      /* I = 68 */
(PID.TID 0000.0001)                 3.206597440000000E+08,      /* I = 69 */
(PID.TID 0000.0001)                 3.204073280000000E+08,      /* I = 70 */
(PID.TID 0000.0001)                 3.201584640000000E+08,      /* I = 71 */
(PID.TID 0000.0001)                 3.199130880000000E+08,      /* I = 72 */
(PID.TID 0000.0001)                 3.196711360000000E+08,      /* I = 73 */
(PID.TID 0000.0001)                 3.194325440000000E+08,      /* I = 74 */
(PID.TID 0000.0001)                 3.191972480000000E+08,      /* I = 75 */
(PID.TID 0000.0001)                 3.189652160000000E+08       /* I = 76 */
(PID.TID 0000.0001)     ;
(PID.TID 0000.0001) rA  =  /* rA (1,:,1,:) ( units: m^2 ) */
(PID.TID 0000.0001)                 3.513317440000000E+08,      /* J =  1 */
(PID.TID 0000.0001)                 3.515924160000000E+08,      /* J =  2 */
(PID.TID 0000.0001)                 3.518488960000000E+08,      /* J =  3 */
(PID.TID 0000.0001)                 3.521012480000000E+08,      /* J =  4 */
(PID.TID 0000.0001)                 3.523495040000000E+08,      /* J =  5 */
(PID.TID 0000.0001)                 3.525936960000000E+08,      /* J =  6 */
(PID.TID 0000.0001)                 3.528338880000000E+08,      /* J =  7 */
(PID.TID 0000.0001)                 3.530701760000000E+08,      /* J =  8 */
(PID.TID 0000.0001)                 3.533025280000000E+08,      /* J =  9 */
(PID.TID 0000.0001)                 3.535310080000000E+08,      /* J = 10 */
(PID.TID 0000.0001)                 3.537557120000000E+08,      /* J = 11 */
(PID.TID 0000.0001)                 3.539766400000000E+08,      /* J = 12 */
(PID.TID 0000.0001)                 3.541938240000000E+08,      /* J = 13 */
(PID.TID 0000.0001)                 3.544073600000000E+08,      /* J = 14 */
(PID.TID 0000.0001)                 3.546172480000000E+08,      /* J = 15 */
(PID.TID 0000.0001)                 3.548235520000000E+08,      /* J = 16 */
(PID.TID 0000.0001)                 3.550262720000000E+08,      /* J = 17 */
(PID.TID 0000.0001)                 3.552255040000000E+08,      /* J = 18 */
(PID.TID 0000.0001)                 3.554212800000000E+08,      /* J = 19 */
(PID.TID 0000.0001)                 3.556136000000000E+08,      /* J = 20 */
(PID.TID 0000.0001)                 3.558025280000000E+08,      /* J = 21 */
(PID.TID 0000.0001)                 3.559880960000000E+08,      /* J = 22 */
(PID.TID 0000.0001)                 3.561703680000000E+08,      /* J = 23 */
(PID.TID 0000.0001)                 3.563493440000000E+08,      /* J = 24 */
(PID.TID 0000.0001)                 3.565250880000000E+08,      /* J = 25 */
(PID.TID 0000.0001)                 3.566976000000000E+08,      /* J = 26 */
(PID.TID 0000.0001)                 3.568669440000000E+08,      /* J = 27 */
(PID.TID 0000.0001)                 3.570331520000000E+08,      /* J = 28 */
(PID.TID 0000.0001)                 3.571962560000000E+08,      /* J = 29 */
(PID.TID 0000.0001)                 3.573562880000000E+08,      /* J = 30 */
(PID.TID 0000.0001)                 3.575132800000000E+08,      /* J = 31 */
(PID.TID 0000.0001)                 3.576672640000000E+08,      /* J = 32 */
(PID.TID 0000.0001)                 3.578182400000000E+08,      /* J = 33 */
(PID.TID 0000.0001)                 3.579663040000000E+08,      /* J = 34 */
(PID.TID 0000.0001)                 3.581114560000000E+08,      /* J = 35 */
(PID.TID 0000.0001)                 3.582536960000000E+08,      /* J = 36 */
(PID.TID 0000.0001)                 3.583930880000000E+08,      /* J = 37 */
(PID.TID 0000.0001)                 3.585296640000000E+08,      /* J = 38 */
(PID.TID 0000.0001)                 3.586634240000000E+08,      /* J = 39 */
(PID.TID 0000.0001)                 3.587944320000000E+08,      /* J = 40 */
(PID.TID 0000.0001)                 3.589226560000000E+08,      /* J = 41 */
(PID.TID 0000.0001)                 3.590481920000000E+08,      /* J = 42 */
(PID.TID 0000.0001)                 3.591710400000000E+08,      /* J = 43 */
(PID.TID 0000.0001)                 3.592912000000000E+08,      /* J = 44 */
(PID.TID 0000.0001)                 3.594087040000000E+08,      /* J = 45 */
(PID.TID 0000.0001)                 3.595236160000000E+08,      /* J = 46 */
(PID.TID 0000.0001)                 3.596359360000000E+08,      /* J = 47 */
(PID.TID 0000.0001)                 3.597456640000000E+08,      /* J = 48 */
(PID.TID 0000.0001)                 3.598528320000000E+08,      /* J = 49 */
(PID.TID 0000.0001)                 3.599575040000000E+08,      /* J = 50 */
(PID.TID 0000.0001)                 3.600596480000000E+08,      /* J = 51 */
(PID.TID 0000.0001)                 3.601592960000000E+08,      /* J = 52 */
(PID.TID 0000.0001)                 3.602565120000000E+08,      /* J = 53 */
(PID.TID 0000.0001)                 3.603512640000000E+08,      /* J = 54 */
(PID.TID 0000.0001)                 3.604435840000000E+08,      /* J = 55 */
(PID.TID 0000.0001)                 3.605335360000000E+08,      /* J = 56 */
(PID.TID 0000.0001)                 3.606210560000000E+08,      /* J = 57 */
(PID.TID 0000.0001)                 3.607062400000000E+08,      /* J = 58 */
(PID.TID 0000.0001)                 3.607890560000000E+08,      /* J = 59 */
(PID.TID 0000.0001)                 3.608695360000000E+08,      /* J = 60 */
(PID.TID 0000.0001)                 3.609477120000000E+08,      /* J = 61 */
(PID.TID 0000.0001)                 3.610235840000000E+08,      /* J = 62 */
(PID.TID 0000.0001)                 3.610971840000000E+08,      /* J = 63 */
(PID.TID 0000.0001)                 3.611685120000000E+08,      /* J = 64 */
(PID.TID 0000.0001)                 3.612375680000000E+08,      /* J = 65 */
(PID.TID 0000.0001)                 3.613043840000000E+08,      /* J = 66 */
(PID.TID 0000.0001)                 3.613689920000000E+08,      /* J = 67 */
(PID.TID 0000.0001)                 3.614313920000000E+08,      /* J = 68 */
(PID.TID 0000.0001)                 3.614915840000000E+08,      /* J = 69 */
(PID.TID 0000.0001)                 3.615495680000000E+08,      /* J = 70 */
(PID.TID 0000.0001)                 3.616054080000000E+08,      /* J = 71 */
(PID.TID 0000.0001)                 3.616590720000000E+08       /* J = 72 */
(PID.TID 0000.0001)     ;
(PID.TID 0000.0001) rAw =  /* rAw(:,1,:,1) ( units: m^2 ) */
(PID.TID 0000.0001)                 3.517127040000000E+08,      /* I =  1 */
(PID.TID 0000.0001)                 3.509542080000000E+08,      /* I =  2 */
(PID.TID 0000.0001)                 3.502092800000000E+08,      /* I =  3 */
(PID.TID 0000.0001)                 3.494776000000000E+08,      /* I =  4 */
(PID.TID 0000.0001)                 3.487588800000000E+08,      /* I =  5 */
(PID.TID 0000.0001)                 3.480528960000000E+08,      /* I =  6 */
(PID.TID 0000.0001)                 3.473593920000000E+08,      /* I =  7 */
(PID.TID 0000.0001)                 3.466780800000000E+08,      /* I =  8 */
(PID.TID 0000.0001)                 3.460087360000000E+08,      /* I =  9 */
(PID.TID 0000.0001)                 3.453511040000000E+08,      /* I = 10 */
(PID.TID 0000.0001)                 3.447049600000000E+08,      /* I = 11 */
(PID.TID 0000.0001)                 3.440700480000000E+08,      /* I = 12 */
(PID.TID 0000.0001)                 3.434461440000000E+08,      /* I = 13 */
(PID.TID 0000.0001)                 3.428330240000000E+08,      /* I = 14 */
(PID.TID 0000.0001)                 3.422304640000000E+08,      /* I = 15 */
(PID.TID 0000.0001)                 3.416382720000000E+08,      /* I = 16 */
(PID.TID 0000.0001)                 3.410561920000000E+08,      /* I = 17 */
(PID.TID 0000.0001)                 3.404840640000000E+08,      /* I = 18 */
(PID.TID 0000.0001)                 3.399216640000000E+08,      /* I = 19 */
(PID.TID 0000.0001)                 3.393688000000000E+08,      /* I = 20 */
(PID.TID 0000.0001)                 3.388252480000000E+08,      /* I = 21 */
(PID.TID 0000.0001)                 3.382908800000000E+08,      /* I = 22 */
(PID.TID 0000.0001)                 3.377654400000000E+08,      /* I = 23 */
(PID.TID 0000.0001)                 3.372488000000000E+08,      /* I = 24 */
(PID.TID 0000.0001)                 3.367407680000000E+08,      /* I = 25 */
(PID.TID 0000.0001)                 3.362411520000000E+08,      /* I = 26 */
(PID.TID 0000.0001)                 3.357497920000000E+08,      /* I = 27 */
(PID.TID 0000.0001)                 3.352665280000000E+08,      /* I = 28 */
(PID.TID 0000.0001)                 3.347912000000000E+08,      /* I = 29 */
(PID.TID 0000.0001)                 3.343236480000000E+08,      /* I = 30 */
(PID.TID 0000.0001)                 3.338636800000000E+08,      /* I = 31 */
(PID.TID 0000.0001)                 3.334111680000000E+08,      /* I = 32 */
(PID.TID 0000.0001)                 3.329659840000000E+08,      /* I = 33 */
(PID.TID 0000.0001)                 3.325279680000000E+08,      /* I = 34 */
(PID.TID 0000.0001)                 3.320969920000000E+08,      /* I = 35 */
(PID.TID 0000.0001)                 3.316728640000000E+08,      /* I = 36 */
(PID.TID 0000.0001)                 3.312554880000000E+08,      /* I = 37 */
(PID.TID 0000.0001)                 3.308447360000000E+08,      /* I = 38 */
(PID.TID 0000.0001)                 3.304404800000000E+08,      /* I = 39 */
(PID.TID 0000.0001)                 3.300425600000000E+08,      /* I = 40 */
(PID.TID 0000.0001)                 3.296508800000000E+08,      /* I = 41 */
(PID.TID 0000.0001)                 3.292653120000000E+08,      /* I = 42 */
(PID.TID 0000.0001)                 3.288857280000000E+08,      /* I = 43 */
(PID.TID 0000.0001)                 3.285120320000000E+08,      /* I = 44 */
(PID.TID 0000.0001)                 3.281440640000000E+08,      /* I = 45 */
(PID.TID 0000.0001)                 3.277817600000000E+08,      /* I = 46 */
(PID.TID 0000.0001)                 3.274250240000000E+08,      /* I = 47 */
(PID.TID 0000.0001)                 3.270736960000000E+08,      /* I = 48 */
(PID.TID 0000.0001)                 3.267277120000000E+08,      /* I = 49 */
(PID.TID 0000.0001)                 3.263869440000000E+08,      /* I = 50 */
(PID.TID 0000.0001)                 3.260513280000000E+08,      /* I = 51 */
(PID.TID 0000.0001)                 3.257207360000000E+08,      /* I = 52 */
(PID.TID 0000.0001)                 3.253950720000000E+08,      /* I = 53 */
(PID.TID 0000.0001)                 3.250742720000000E+08,      /* I = 54 */
(PID.TID 0000.0001)                 3.247582080000000E+08,      /* I = 55 */
(PID.TID 0000.0001)                 3.244468160000000E+08,      /* I = 56 */
(PID.TID 0000.0001)                 3.241400320000000E+08,      /* I = 57 */
(PID.TID 0000.0001)                 3.238377280000000E+08,      /* I = 58 */
(PID.TID 0000.0001)                 3.235398720000000E+08,      /* I = 59 */
(PID.TID 0000.0001)                 3.232463360000000E+08,      /* I = 60 */
(PID.TID 0000.0001)                 3.229570240000000E+08,      /* I = 61 */
(PID.TID 0000.0001)                 3.226719360000000E+08,      /* I = 62 */
(PID.TID 0000.0001)                 3.223909440000000E+08,      /* I = 63 */
(PID.TID 0000.0001)                 3.221139840000000E+08,      /* I = 64 */
(PID.TID 0000.0001)                 3.218409920000000E+08,      /* I = 65 */
(PID.TID 0000.0001)                 3.215719040000000E+08,      /* I = 66 */
(PID.TID 0000.0001)                 3.213066240000000E+08,      /* I = 67 */
(PID.TID 0000.0001)                 3.210450880000000E+08,      /* I = 68 */
(PID.TID 0000.0001)                 3.207872960000000E+08,      /* I = 69 */
(PID.TID 0000.0001)                 3.205330880000000E+08,      /* I = 70 */
(PID.TID 0000.0001)                 3.202824640000000E+08,      /* I = 71 */
(PID.TID 0000.0001)                 3.200353600000000E+08,      /* I = 72 */
(PID.TID 0000.0001)                 3.197916800000000E+08,      /* I = 73 */
(PID.TID 0000.0001)                 3.195514240000000E+08,      /* I = 74 */
(PID.TID 0000.0001)                 3.193144960000000E+08,      /* I = 75 */
(PID.TID 0000.0001)                 3.190808320000000E+08       /* I = 76 */
(PID.TID 0000.0001)     ;
(PID.TID 0000.0001) rAw =  /* rAw(1,:,1,:) ( units: m^2 ) */
(PID.TID 0000.0001)                 3.517127040000000E+08,      /* J =  1 */
(PID.TID 0000.0001)                 3.519755520000000E+08,      /* J =  2 */
(PID.TID 0000.0001)                 3.522342080000000E+08,      /* J =  3 */
(PID.TID 0000.0001)                 3.524886720000000E+08,      /* J =  4 */
(PID.TID 0000.0001)                 3.527390080000000E+08,      /* J =  5 */
(PID.TID 0000.0001)                 3.529852480000000E+08,      /* J =  6 */
(PID.TID 0000.0001)                 3.532274880000000E+08,      /* J =  7 */
(PID.TID 0000.0001)                 3.534657280000000E+08,      /* J =  8 */
(PID.TID 0000.0001)                 3.537000320000000E+08,      /* J =  9 */
(PID.TID 0000.0001)                 3.539304320000000E+08,      /* J = 10 */
(PID.TID 0000.0001)                 3.541569920000000E+08,      /* J = 11 */
(PID.TID 0000.0001)                 3.543797760000000E+08,      /* J = 12 */
(PID.TID 0000.0001)                 3.545987840000000E+08,      /* J = 13 */
(PID.TID 0000.0001)                 3.548140800000000E+08,      /* J = 14 */
(PID.TID 0000.0001)                 3.550257280000000E+08,      /* J = 15 */
(PID.TID 0000.0001)                 3.552337600000000E+08,      /* J = 16 */
(PID.TID 0000.0001)                 3.554381760000000E+08,      /* J = 17 */
(PID.TID 0000.0001)                 3.556390720000000E+08,      /* J = 18 */
(PID.TID 0000.0001)                 3.558364480000000E+08,      /* J = 19 */
(PID.TID 0000.0001)                 3.560303680000000E+08,      /* J = 20 */
(PID.TID 0000.0001)                 3.562208640000000E+08,      /* J = 21 */
(PID.TID 0000.0001)                 3.564080000000000E+08,      /* J = 22 */
(PID.TID 0000.0001)                 3.565917760000000E+08,      /* J = 23 */
(PID.TID 0000.0001)                 3.567722240000000E+08,      /* J = 24 */
(PID.TID 0000.0001)                 3.569494080000000E+08,      /* J = 25 */
(PID.TID 0000.0001)                 3.571233600000000E+08,      /* J = 26 */
(PID.TID 0000.0001)                 3.572941120000000E+08,      /* J = 27 */
(PID.TID 0000.0001)                 3.574616960000000E+08,      /* J = 28 */
(PID.TID 0000.0001)                 3.576261440000000E+08,      /* J = 29 */
(PID.TID 0000.0001)                 3.577874880000000E+08,      /* J = 30 */
(PID.TID 0000.0001)                 3.579457920000000E+08,      /* J = 31 */
(PID.TID 0000.0001)                 3.581010240000000E+08,      /* J = 32 */
(PID.TID 0000.0001)                 3.582532800000000E+08,      /* J = 33 */
(PID.TID 0000.0001)                 3.584025600000000E+08,      /* J = 34 */
(PID.TID 0000.0001)                 3.585488960000000E+08,      /* J = 35 */
(PID.TID 0000.0001)                 3.586923200000000E+08,      /* J = 36 */
(PID.TID 0000.0001)                 3.588328640000000E+08,      /* J = 37 */
(PID.TID 0000.0001)                 3.589705600000000E+08,      /* J = 38 */
(PID.TID 0000.0001)                 3.591054400000000E+08,      /* J = 39 */
(PID.TID 0000.0001)                 3.592375040000000E+08,      /* J = 40 */
(PID.TID 0000.0001)                 3.593668160000000E+08,      /* J = 41 */
(PID.TID 0000.0001)                 3.594933760000000E+08,      /* J = 42 */
(PID.TID 0000.0001)                 3.596172160000000E+08,      /* J = 43 */
(PID.TID 0000.0001)                 3.597383680000000E+08,      /* J = 44 */
(PID.TID 0000.0001)                 3.598568640000000E+08,      /* J = 45 */
(PID.TID 0000.0001)                 3.599727040000000E+08,      /* J = 46 */
(PID.TID 0000.0001)                 3.600859520000000E+08,      /* J = 47 */
(PID.TID 0000.0001)                 3.601965760000000E+08,      /* J = 48 */
(PID.TID 0000.0001)                 3.603046400000000E+08,      /* J = 49 */
(PID.TID 0000.0001)                 3.604101760000000E+08,      /* J = 50 */
(PID.TID 0000.0001)                 3.605131520000000E+08,      /* J = 51 */
(PID.TID 0000.0001)                 3.606136320000000E+08,      /* J = 52 */
(PID.TID 0000.0001)                 3.607116480000000E+08,      /* J = 53 */
(PID.TID 0000.0001)                 3.608071680000000E+08,      /* J = 54 */
(PID.TID 0000.0001)                 3.609002880000000E+08,      /* J = 55 */
(PID.TID 0000.0001)                 3.609909440000000E+08,      /* J = 56 */
(PID.TID 0000.0001)                 3.610792000000000E+08,      /* J = 57 */
(PID.TID 0000.0001)                 3.611650880000000E+08,      /* J = 58 */
(PID.TID 0000.0001)                 3.612485760000000E+08,      /* J = 59 */
(PID.TID 0000.0001)                 3.613297280000000E+08,      /* J = 60 */
(PID.TID 0000.0001)                 3.614085440000000E+08,      /* J = 61 */
(PID.TID 0000.0001)                 3.614850560000000E+08,      /* J = 62 */
(PID.TID 0000.0001)                 3.615592320000000E+08,      /* J = 63 */
(PID.TID 0000.0001)                 3.616311360000000E+08,      /* J = 64 */
(PID.TID 0000.0001)                 3.617007680000000E+08,      /* J = 65 */
(PID.TID 0000.0001)                 3.617681600000000E+08,      /* J = 66 */
(PID.TID 0000.0001)                 3.618332800000000E+08,      /* J = 67 */
(PID.TID 0000.0001)                 3.618961920000000E+08,      /* J = 68 */
(PID.TID 0000.0001)                 3.619568640000000E+08,      /* J = 69 */
(PID.TID 0000.0001)                 3.620153600000000E+08,      /* J = 70 */
(PID.TID 0000.0001)                 3.620716480000000E+08,      /* J = 71 */
(PID.TID 0000.0001)                 3.621257600000000E+08       /* J = 72 */
(PID.TID 0000.0001)     ;
(PID.TID 0000.0001) rAs =  /* rAs(:,1,:,1) ( units: m^2 ) */
(PID.TID 0000.0001)                 3.511998080000000E+08,      /* I =  1 */
(PID.TID 0000.0001)                 3.504503680000000E+08,      /* I =  2 */
(PID.TID 0000.0001)                 3.497143360000000E+08,      /* I =  3 */
(PID.TID 0000.0001)                 3.489914240000000E+08,      /* I =  4 */
(PID.TID 0000.0001)                 3.482813440000000E+08,      /* I =  5 */
(PID.TID 0000.0001)                 3.475838720000000E+08,      /* I =  6 */
(PID.TID 0000.0001)                 3.468987520000000E+08,      /* I =  7 */
(PID.TID 0000.0001)                 3.462257280000000E+08,      /* I =  8 */
(PID.TID 0000.0001)                 3.455645120000000E+08,      /* I =  9 */
(PID.TID 0000.0001)                 3.449149120000000E+08,      /* I = 10 */
(PID.TID 0000.0001)                 3.442766400000000E+08,      /* I = 11 */
(PID.TID 0000.0001)                 3.436495040000000E+08,      /* I = 12 */
(PID.TID 0000.0001)                 3.430332800000000E+08,      /* I = 13 */
(PID.TID 0000.0001)                 3.424277120000000E+08,      /* I = 14 */
(PID.TID 0000.0001)                 3.418326080000000E+08,      /* I = 15 */
(PID.TID 0000.0001)                 3.412477440000000E+08,      /* I = 16 */
(PID.TID 0000.0001)                 3.406729280000000E+08,      /* I = 17 */
(PID.TID 0000.0001)                 3.401079040000000E+08,      /* I = 18 */
(PID.TID 0000.0001)                 3.395525120000000E+08,      /* I = 19 */
(PID.TID 0000.0001)                 3.390065600000000E+08,      /* I = 20 */
(PID.TID 0000.0001)                 3.384698240000000E+08,      /* I = 21 */
(PID.TID 0000.0001)                 3.379421760000000E+08,      /* I = 22 */
(PID.TID 0000.0001)                 3.374233600000000E+08,      /* I = 23 */
(PID.TID 0000.0001)                 3.369132160000000E+08,      /* I = 24 */
(PID.TID 0000.0001)                 3.364115840000000E+08,      /* I = 25 */
(PID.TID 0000.0001)                 3.359183040000000E+08,      /* I = 26 */
(PID.TID 0000.0001)                 3.354331840000000E+08,      /* I = 27 */
(PID.TID 0000.0001)                 3.349560640000000E+08,      /* I = 28 */
(PID.TID 0000.0001)                 3.344867520000000E+08,      /* I = 29 */
(PID.TID 0000.0001)                 3.340251520000000E+08,      /* I = 30 */
(PID.TID 0000.0001)                 3.335710720000000E+08,      /* I = 31 */
(PID.TID 0000.0001)                 3.331243520000000E+08,      /* I = 32 */
(PID.TID 0000.0001)                 3.326848640000000E+08,      /* I = 33 */
(PID.TID 0000.0001)                 3.322524800000000E+08,      /* I = 34 */
(PID.TID 0000.0001)                 3.318270080000000E+08,      /* I = 35 */
(PID.TID 0000.0001)                 3.314083520000000E+08,      /* I = 36 */
(PID.TID 0000.0001)                 3.309963520000000E+08,      /* I = 37 */
(PID.TID 0000.0001)                 3.305908800000000E+08,      /* I = 38 */
(PID.TID 0000.0001)                 3.301918400000000E+08,      /* I = 39 */
(PID.TID 0000.0001)                 3.297990720000000E+08,      /* I = 40 */
(PID.TID 0000.0001)                 3.294124480000000E+08,      /* I = 41 */
(PID.TID 0000.0001)                 3.290318720000000E+08,      /* I = 42 */
(PID.TID 0000.0001)                 3.286572160000000E+08,      /* I = 43 */
(PID.TID 0000.0001)                 3.282883520000000E+08,      /* I = 44 */
(PID.TID 0000.0001)                 3.279252160000000E+08,      /* I = 45 */
(PID.TID 0000.0001)                 3.275676160000000E+08,      /* I = 46 */
(PID.TID 0000.0001)                 3.272155200000000E+08,      /* I = 47 */
(PID.TID 0000.0001)                 3.268687680000000E+08,      /* I = 48 */
(PID.TID 0000.0001)                 3.265272960000000E+08,      /* I = 49 */
(PID.TID 0000.0001)                 3.261909760000000E+08,      /* I = 50 */
(PID.TID 0000.0001)                 3.258597440000000E+08,      /* I = 51 */
(PID.TID 0000.0001)                 3.255334720000000E+08,      /* I = 52 */
(PID.TID 0000.0001)                 3.252120640000000E+08,      /* I = 53 */
(PID.TID 0000.0001)                 3.248954880000000E+08,      /* I = 54 */
(PID.TID 0000.0001)                 3.245835840000000E+08,      /* I = 55 */
(PID.TID 0000.0001)                 3.242762880000000E+08,      /* I = 56 */
(PID.TID 0000.0001)                 3.239735040000000E+08,      /* I = 57 */
(PID.TID 0000.0001)                 3.236752000000000E+08,      /* I = 58 */
(PID.TID 0000.0001)                 3.233812160000000E+08,      /* I = 59 */
(PID.TID 0000.0001)                 3.230915520000000E+08,      /* I = 60 */
(PID.TID 0000.0001)                 3.228060800000000E+08,      /* I = 61 */
(PID.TID 0000.0001)                 3.225247360000000E+08,      /* I = 62 */
(PID.TID 0000.0001)                 3.222474240000000E+08,      /* I = 63 */
(PID.TID 0000.0001)                 3.219741440000000E+08,      /* I = 64 */
(PID.TID 0000.0001)                 3.217047360000000E+08,      /* I = 65 */
(PID.TID 0000.0001)                 3.214392000000000E+08,      /* I = 66 */
(PID.TID 0000.0001)                 3.211774080000000E+08,      /* I = 67 */
(PID.TID 0000.0001)                 3.209193600000000E+08,      /* I = 68 */
(PID.TID 0000.0001)                 3.206649600000000E+08,      /* I = 69 */
(PID.TID 0000.0001)                 3.204141120000000E+08,      /* I = 70 */
(PID.TID 0000.0001)                 3.201668160000000E+08,      /* I = 71 */
(PID.TID 0000.0001)                 3.199229760000000E+08,      /* I = 72 */
(PID.TID 0000.0001)                 3.196825280000000E+08,      /* I = 73 */
(PID.TID 0000.0001)                 3.194454400000000E+08,      /* I = 74 */
(PID.TID 0000.0001)                 3.192116480000000E+08,      /* I = 75 */
(PID.TID 0000.0001)                 3.189810880000000E+08       /* I = 76 */
(PID.TID 0000.0001)     ;
(PID.TID 0000.0001) rAs =  /* rAs(1,:,1,:) ( units: m^2 ) */
(PID.TID 0000.0001)                 3.511998080000000E+08,      /* J =  1 */
(PID.TID 0000.0001)                 3.514625920000000E+08,      /* J =  2 */
(PID.TID 0000.0001)                 3.517211840000000E+08,      /* J =  3 */
(PID.TID 0000.0001)                 3.519755840000000E+08,      /* J =  4 */
(PID.TID 0000.0001)                 3.522258880000000E+08,      /* J =  5 */
(PID.TID 0000.0001)                 3.524720960000000E+08,      /* J =  6 */
(PID.TID 0000.0001)                 3.527143040000000E+08,      /* J =  7 */
(PID.TID 0000.0001)                 3.529525120000000E+08,      /* J =  8 */
(PID.TID 0000.0001)                 3.531868160000000E+08,      /* J =  9 */
(PID.TID 0000.0001)                 3.534172480000000E+08,      /* J = 10 */
(PID.TID 0000.0001)                 3.536438400000000E+08,      /* J = 11 */
(PID.TID 0000.0001)                 3.538666240000000E+08,      /* J = 12 */
(PID.TID 0000.0001)                 3.540856960000000E+08,      /* J = 13 */
(PID.TID 0000.0001)                 3.543010560000000E+08,      /* J = 14 */
(PID.TID 0000.0001)                 3.545127680000000E+08,      /* J = 15 */
(PID.TID 0000.0001)                 3.547208320000000E+08,      /* J = 16 */
(PID.TID 0000.0001)                 3.549253440000000E+08,      /* J = 17 */
(PID.TID 0000.0001)                 3.551263360000000E+08,      /* J = 18 */
(PID.TID 0000.0001)                 3.553238400000000E+08,      /* J = 19 */
(PID.TID 0000.0001)                 3.555178560000000E+08,      /* J = 20 */
(PID.TID 0000.0001)                 3.557084800000000E+08,      /* J = 21 */
(PID.TID 0000.0001)                 3.558957440000000E+08,      /* J = 22 */
(PID.TID 0000.0001)                 3.560796480000000E+08,      /* J = 23 */
(PID.TID 0000.0001)                 3.562602560000000E+08,      /* J = 24 */
(PID.TID 0000.0001)                 3.564376000000000E+08,      /* J = 25 */
(PID.TID 0000.0001)                 3.566117440000000E+08,      /* J = 26 */
(PID.TID 0000.0001)                 3.567826560000000E+08,      /* J = 27 */
(PID.TID 0000.0001)                 3.569504320000000E+08,      /* J = 28 */
(PID.TID 0000.0001)                 3.571151040000000E+08,      /* J = 29 */
(PID.TID 0000.0001)                 3.572766400000000E+08,      /* J = 30 */
(PID.TID 0000.0001)                 3.574351680000000E+08,      /* J = 31 */
(PID.TID 0000.0001)                 3.575906240000000E+08,      /* J = 32 */
(PID.TID 0000.0001)                 3.577431360000000E+08,      /* J = 33 */
(PID.TID 0000.0001)                 3.578926400000000E+08,      /* J = 34 */
(PID.TID 0000.0001)                 3.580392320000000E+08,      /* J = 35 */
(PID.TID 0000.0001)                 3.581829440000000E+08,      /* J = 36 */
(PID.TID 0000.0001)                 3.583237440000000E+08,      /* J = 37 */
(PID.TID 0000.0001)                 3.584617280000000E+08,      /* J = 38 */
(PID.TID 0000.0001)                 3.585968960000000E+08,      /* J = 39 */
(PID.TID 0000.0001)                 3.587292800000000E+08,      /* J = 40 */
(PID.TID 0000.0001)                 3.588588800000000E+08,      /* J = 41 */
(PID.TID 0000.0001)                 3.589857600000000E+08,      /* J = 42 */
(PID.TID 0000.0001)                 3.591099520000000E+08,      /* J = 43 */
(PID.TID 0000.0001)                 3.592314560000000E+08,      /* J = 44 */
(PID.TID 0000.0001)                 3.593502720000000E+08,      /* J = 45 */
(PID.TID 0000.0001)                 3.594664960000000E+08,      /* J = 46 */
(PID.TID 0000.0001)                 3.595800960000000E+08,      /* J = 47 */
(PID.TID 0000.0001)                 3.596911040000000E+08,      /* J = 48 */
(PID.TID 0000.0001)                 3.597995520000000E+08,      /* J = 49 */
(PID.TID 0000.0001)                 3.599054720000000E+08,      /* J = 50 */
(PID.TID 0000.0001)                 3.600088640000000E+08,      /* J = 51 */
(PID.TID 0000.0001)                 3.601097920000000E+08,      /* J = 52 */
(PID.TID 0000.0001)                 3.602082240000000E+08,      /* J = 53 */
(PID.TID 0000.0001)                 3.603041920000000E+08,      /* J = 54 */
(PID.TID 0000.0001)                 3.603977280000000E+08,      /* J = 55 */
(PID.TID 0000.0001)                 3.604888640000000E+08,      /* J = 56 */
(PID.TID 0000.0001)                 3.605776000000000E+08,      /* J = 57 */
(PID.TID 0000.0001)                 3.606639360000000E+08,      /* J = 58 */
(PID.TID 0000.0001)                 3.607479360000000E+08,      /* J = 59 */
(PID.TID 0000.0001)                 3.608296000000000E+08,      /* J = 60 */
(PID.TID 0000.0001)                 3.609089280000000E+08,      /* J = 61 */
(PID.TID 0000.0001)                 3.609859520000000E+08,      /* J = 62 */
(PID.TID 0000.0001)                 3.610606720000000E+08,      /* J = 63 */
(PID.TID 0000.0001)                 3.611331200000000E+08,      /* J = 64 */
(PID.TID 0000.0001)                 3.612033280000000E+08,      /* J = 65 */
(PID.TID 0000.0001)                 3.612712640000000E+08,      /* J = 66 */
(PID.TID 0000.0001)                 3.613369600000000E+08,      /* J = 67 */
(PID.TID 0000.0001)                 3.614004480000000E+08,      /* J = 68 */
(PID.TID 0000.0001)                 3.614617600000000E+08,      /* J = 69 */
(PID.TID 0000.0001)                 3.615208640000000E+08,      /* J = 70 */
(PID.TID 0000.0001)                 3.615777600000000E+08,      /* J = 71 */
(PID.TID 0000.0001)                 3.616325120000000E+08       /* J = 72 */
(PID.TID 0000.0001)     ;
(PID.TID 0000.0001) globalArea = /* Integrated horizontal Area (m^2) */
(PID.TID 0000.0001)                 4.877096368000000E+11
(PID.TID 0000.0001)     ;
(PID.TID 0000.0001) // =======================================================
(PID.TID 0000.0001) // End of Model config. summary
(PID.TID 0000.0001) // =======================================================
(PID.TID 0000.0001) 
(PID.TID 0000.0001) == Packages configuration : Check & print summary ==
(PID.TID 0000.0001) 
(PID.TID 0000.0001) GAD_CHECK: #define ALLOW_GENERIC_ADVDIFF
(PID.TID 0000.0001) KPP_CHECK: #define ALLOW_KPP
(PID.TID 0000.0001) OBCS_CHECK: #define ALLOW_OBCS
(PID.TID 0000.0001) OBCS_CHECK: OK
(PID.TID 0000.0001) GCHEM_CHECK: #define ALLOW_GCHEM
(PID.TID 0000.0001) DARWIN_CHECK: #define ALLOW_DARWIN
(PID.TID 0000.0001) DARWIN_CHECK: iPtr darwin   PTRACERS_names
(PID.TID 0000.0001) DARWIN_CHECK:    1 PO4      PO4
(PID.TID 0000.0001) DARWIN_CHECK:    2 NO3      NO3
(PID.TID 0000.0001) DARWIN_CHECK:    3 FeT      FeT
(PID.TID 0000.0001) DARWIN_CHECK:    4 Si       SiO2
(PID.TID 0000.0001) DARWIN_CHECK:    5 DOP      DOP
(PID.TID 0000.0001) DARWIN_CHECK:    6 DON      DON
(PID.TID 0000.0001) DARWIN_CHECK:    7 DOFe     DOFe
(PID.TID 0000.0001) DARWIN_CHECK:    8 ZooP (1) ZOO1P
(PID.TID 0000.0001) DARWIN_CHECK:    9 ZooN (1) ZOO1N
(PID.TID 0000.0001) DARWIN_CHECK:   10 ZooFe(1) ZOO1Fe
(PID.TID 0000.0001) DARWIN_CHECK:   11 ZooSi(1) ZOO1Si
(PID.TID 0000.0001) DARWIN_CHECK:   12 ZooP (2) ZOO2P
(PID.TID 0000.0001) DARWIN_CHECK:   13 ZooN (2) ZOO2N
(PID.TID 0000.0001) DARWIN_CHECK:   14 ZooFe(2) ZOO2Fe
(PID.TID 0000.0001) DARWIN_CHECK:   15 ZooSi(2) ZOO2Si
(PID.TID 0000.0001) DARWIN_CHECK:   16 POP      POP
(PID.TID 0000.0001) DARWIN_CHECK:   17 PON      PON
(PID.TID 0000.0001) DARWIN_CHECK:   18 POFe     POFe
(PID.TID 0000.0001) DARWIN_CHECK:   19 POSi     POSi
(PID.TID 0000.0001) DARWIN_CHECK:   20 NH4      NH4
(PID.TID 0000.0001) DARWIN_CHECK:   21 NO2      NO2
(PID.TID 0000.0001) DARWIN_CHECK:   22 Phy(1)   Phy01
(PID.TID 0000.0001) DARWIN_CHECK:   99 Phy(  78)Phy78
(PID.TID 0000.0001) SEAICE_CHECK: #define ALLOW_SEAICE
(PID.TID 0000.0001) // =======================================================
(PID.TID 0000.0001) // CONFIG_CHECK : Normal End
(PID.TID 0000.0001) // =======================================================
(PID.TID 0000.0001) 
(PID.TID 0000.0001)  MDS_READ_META: opening file: pickup.0000188388.meta
(PID.TID 0000.0001)  nRecords = 195 ; filePrec =  64 ; fileIter =    188388
(PID.TID 0000.0001)     nDims =   2 , dims:
(PID.TID 0000.0001)    1:  76   1  76
(PID.TID 0000.0001)    2:  72   1  72
(PID.TID 0000.0001)     nFlds =   0 , nFl3D =   0 , fields:
(PID.TID 0000.0001)   nTimRec =   0 , timeList:
(PID.TID 0000.0001)  MDS_READ_FIELD: opening global file: pickup.0000188388.data
(PID.TID 0000.0001)  MDS_READ_FIELD: opening global file: pickup.0000188388.data
(PID.TID 0000.0001)  MDS_READ_FIELD: opening global file: pickup.0000188388.data
(PID.TID 0000.0001)  MDS_READ_FIELD: opening global file: pickup.0000188388.data
(PID.TID 0000.0001)  MDS_READ_FIELD: opening global file: pickup.0000188388.data
(PID.TID 0000.0001)  MDS_READ_FIELD: opening global file: pickup.0000188388.data
(PID.TID 0000.0001)  MDS_READ_FIELD: opening global file: pickup.0000188388.data
(PID.TID 0000.0001)  MDS_READ_FIELD: opening global file: pickup.0000188388.data
(PID.TID 0000.0001)  MDS_READ_FIELD: opening global file: pickup.0000188388.data
(PID.TID 0000.0001)  MDS_READ_FIELD: opening global file: pickup.0000188388.data
(PID.TID 0000.0001) READ_MFLDS_CHECK: - normal end ; reset MFLDS file-name: pickup.0000188388
(PID.TID 0000.0001)  write diagnostics summary to file ioUnit:      6
Iter.Nb:    188388 ; Time(s):  2.2606560000000E+08
------------------------------------------------------------------------
2D/3D diagnostics: Number of lists:   214
------------------------------------------------------------------------
listId=    1 ; file name: THETA_day
 nFlds, nActive,       freq     &     phase        , nLev               
    1  |    1  |     86400.000000         0.000000 |  24
 levels:   1   2   3   4   5   6   7   8   9  10  11  12  13  14  15  16  17  18  19  20  21  22  23  24
 diag# | name   |   ipt  |  iMate | kLev|   count |   mate.C|           
    26 |THETA   |      1 |      0 |  24 |       0 |
------------------------------------------------------------------------
listId=    2 ; file name: SALTanom_day
 nFlds, nActive,       freq     &     phase        , nLev               
    1  |    1  |     86400.000000         0.000000 |  24
 levels:   1   2   3   4   5   6   7   8   9  10  11  12  13  14  15  16  17  18  19  20  21  22  23  24
 diag# | name   |   ipt  |  iMate | kLev|   count |   mate.C|           
    29 |SALTanom|     25 |      0 |  24 |       0 |
------------------------------------------------------------------------
listId=    3 ; file name: SIarea_day
 nFlds, nActive,       freq     &     phase        , nLev               
    1  |    1  |     86400.000000         0.000000 |   1
 levels:   1
 diag# | name   |   ipt  |  iMate | kLev|   count |   mate.C|           
  1372 |SIarea  |     49 |      0 |   1 |       0 |
------------------------------------------------------------------------
listId=    4 ; file name: SIheff_day
 nFlds, nActive,       freq     &     phase        , nLev               
    1  |    1  |     86400.000000         0.000000 |   1
 levels:   1
 diag# | name   |   ipt  |  iMate | kLev|   count |   mate.C|           
  1373 |SIheff  |     50 |      0 |   1 |       0 |
------------------------------------------------------------------------
listId=    5 ; file name: SIhsnow_day
 nFlds, nActive,       freq     &     phase        , nLev               
    1  |    1  |     86400.000000         0.000000 |   1
 levels:   1
 diag# | name   |   ipt  |  iMate | kLev|   count |   mate.C|           
  1376 |SIhsnow |     51 |      0 |   1 |       0 |
------------------------------------------------------------------------
listId=    6 ; file name: SIqsw_day
 nFlds, nActive,       freq     &     phase        , nLev               
    1  |    1  |     86400.000000         0.000000 |   1
 levels:   1
 diag# | name   |   ipt  |  iMate | kLev|   count |   mate.C|           
  1386 |SIqsw   |     52 |      0 |   1 |       0 |
------------------------------------------------------------------------
listId=    7 ; file name: SIarea
 nFlds, nActive,       freq     &     phase        , nLev               
    1  |    1  |    -86400.000000         0.000000 |   1
 levels:   1
 diag# | name   |   ipt  |  iMate | kLev|   count |   mate.C|           
  1372 |SIarea  |     53 |      0 |   1 |       0 |
------------------------------------------------------------------------
listId=    8 ; file name: SIheff
 nFlds, nActive,       freq     &     phase        , nLev               
    1  |    1  |    -86400.000000         0.000000 |   1
 levels:   1
 diag# | name   |   ipt  |  iMate | kLev|   count |   mate.C|           
  1373 |SIheff  |     54 |      0 |   1 |       0 |
------------------------------------------------------------------------
listId=    9 ; file name: SIhsnow
 nFlds, nActive,       freq     &     phase        , nLev               
    1  |    1  |    -86400.000000         0.000000 |   1
 levels:   1
 diag# | name   |   ipt  |  iMate | kLev|   count |   mate.C|           
  1376 |SIhsnow |     55 |      0 |   1 |       0 |
------------------------------------------------------------------------
listId=   10 ; file name: SIqsw
 nFlds, nActive,       freq     &     phase        , nLev               
    1  |    1  |    -86400.000000         0.000000 |   1
 levels:   1
 diag# | name   |   ipt  |  iMate | kLev|   count |   mate.C|           
  1386 |SIqsw   |     56 |      0 |   1 |       0 |
------------------------------------------------------------------------
listId=   11 ; file name: PAR_day
 nFlds, nActive,       freq     &     phase        , nLev               
    1  |    1  |     86400.000000         0.000000 |  24
 levels:   1   2   3   4   5   6   7   8   9  10  11  12  13  14  15  16  17  18  19  20  21  22  23  24
 diag# | name   |   ipt  |  iMate | kLev|   count |   mate.C|           
  1280 |PAR     |     57 |      0 |  24 |       0 |
------------------------------------------------------------------------
listId=   12 ; file name: PP_day
 nFlds, nActive,       freq     &     phase        , nLev               
    1  |    1  |     86400.000000         0.000000 |  24
 levels:   1   2   3   4   5   6   7   8   9  10  11  12  13  14  15  16  17  18  19  20  21  22  23  24
 diag# | name   |   ipt  |  iMate | kLev|   count |   mate.C|           
  1281 |PP      |     81 |      0 |  24 |       0 |
------------------------------------------------------------------------
listId=   13 ; file name: Nfix_day
 nFlds, nActive,       freq     &     phase        , nLev               
    1  |    1  |     86400.000000         0.000000 |  24
 levels:   1   2   3   4   5   6   7   8   9  10  11  12  13  14  15  16  17  18  19  20  21  22  23  24
 diag# | name   |   ipt  |  iMate | kLev|   count |   mate.C|           
  1282 |Nfix    |    105 |      0 |  24 |       0 |
------------------------------------------------------------------------
listId=   14 ; file name: PAR
 nFlds, nActive,       freq     &     phase        , nLev               
    1  |    1  |    -86400.000000         0.000000 |  24
 levels:   1   2   3   4   5   6   7   8   9  10  11  12  13  14  15  16  17  18  19  20  21  22  23  24
 diag# | name   |   ipt  |  iMate | kLev|   count |   mate.C|           
  1280 |PAR     |    129 |      0 |  24 |       0 |
------------------------------------------------------------------------
listId=   15 ; file name: PP
 nFlds, nActive,       freq     &     phase        , nLev               
    1  |    1  |    -86400.000000         0.000000 |  24
 levels:   1   2   3   4   5   6   7   8   9  10  11  12  13  14  15  16  17  18  19  20  21  22  23  24
 diag# | name   |   ipt  |  iMate | kLev|   count |   mate.C|           
  1281 |PP      |    153 |      0 |  24 |       0 |
------------------------------------------------------------------------
listId=   16 ; file name: Nfix
 nFlds, nActive,       freq     &     phase        , nLev               
    1  |    1  |    -86400.000000         0.000000 |  24
 levels:   1   2   3   4   5   6   7   8   9  10  11  12  13  14  15  16  17  18  19  20  21  22  23  24
 diag# | name   |   ipt  |  iMate | kLev|   count |   mate.C|           
  1282 |Nfix    |    177 |      0 |  24 |       0 |
------------------------------------------------------------------------
listId=   17 ; file name: PO4_day
 nFlds, nActive,       freq     &     phase        , nLev               
    1  |    1  |     86400.000000         0.000000 |  24
 levels:   1   2   3   4   5   6   7   8   9  10  11  12  13  14  15  16  17  18  19  20  21  22  23  24
 diag# | name   |   ipt  |  iMate | kLev|   count |   mate.C|           
   191 |TRAC01  |    201 |      0 |  24 |       0 |
------------------------------------------------------------------------
listId=   18 ; file name: NO3_day
 nFlds, nActive,       freq     &     phase        , nLev               
    1  |    1  |     86400.000000         0.000000 |  24
 levels:   1   2   3   4   5   6   7   8   9  10  11  12  13  14  15  16  17  18  19  20  21  22  23  24
 diag# | name   |   ipt  |  iMate | kLev|   count |   mate.C|           
   202 |TRAC02  |    225 |      0 |  24 |       0 |
------------------------------------------------------------------------
listId=   19 ; file name: FeT_day
 nFlds, nActive,       freq     &     phase        , nLev               
    1  |    1  |     86400.000000         0.000000 |  24
 levels:   1   2   3   4   5   6   7   8   9  10  11  12  13  14  15  16  17  18  19  20  21  22  23  24
 diag# | name   |   ipt  |  iMate | kLev|   count |   mate.C|           
   213 |TRAC03  |    249 |      0 |  24 |       0 |
------------------------------------------------------------------------
listId=   20 ; file name: SiO2_day
 nFlds, nActive,       freq     &     phase        , nLev               
    1  |    1  |     86400.000000         0.000000 |  24
 levels:   1   2   3   4   5   6   7   8   9  10  11  12  13  14  15  16  17  18  19  20  21  22  23  24
 diag# | name   |   ipt  |  iMate | kLev|   count |   mate.C|           
   224 |TRAC04  |    273 |      0 |  24 |       0 |
------------------------------------------------------------------------
listId=   21 ; file name: DOP_day
 nFlds, nActive,       freq     &     phase        , nLev               
    1  |    1  |     86400.000000         0.000000 |  24
 levels:   1   2   3   4   5   6   7   8   9  10  11  12  13  14  15  16  17  18  19  20  21  22  23  24
 diag# | name   |   ipt  |  iMate | kLev|   count |   mate.C|           
   235 |TRAC05  |    297 |      0 |  24 |       0 |
------------------------------------------------------------------------
listId=   22 ; file name: DON_day
 nFlds, nActive,       freq     &     phase        , nLev               
    1  |    1  |     86400.000000         0.000000 |  24
 levels:   1   2   3   4   5   6   7   8   9  10  11  12  13  14  15  16  17  18  19  20  21  22  23  24
 diag# | name   |   ipt  |  iMate | kLev|   count |   mate.C|           
   246 |TRAC06  |    321 |      0 |  24 |       0 |
------------------------------------------------------------------------
listId=   23 ; file name: DOFe_day
 nFlds, nActive,       freq     &     phase        , nLev               
    1  |    1  |     86400.000000         0.000000 |  24
 levels:   1   2   3   4   5   6   7   8   9  10  11  12  13  14  15  16  17  18  19  20  21  22  23  24
 diag# | name   |   ipt  |  iMate | kLev|   count |   mate.C|           
   257 |TRAC07  |    345 |      0 |  24 |       0 |
------------------------------------------------------------------------
listId=   24 ; file name: ZOO1P_day
 nFlds, nActive,       freq     &     phase        , nLev               
    1  |    1  |     86400.000000         0.000000 |  24
 levels:   1   2   3   4   5   6   7   8   9  10  11  12  13  14  15  16  17  18  19  20  21  22  23  24
 diag# | name   |   ipt  |  iMate | kLev|   count |   mate.C|           
   268 |TRAC08  |    369 |      0 |  24 |       0 |
------------------------------------------------------------------------
listId=   25 ; file name: ZOO1N_day
 nFlds, nActive,       freq     &     phase        , nLev               
    1  |    1  |     86400.000000         0.000000 |  24
 levels:   1   2   3   4   5   6   7   8   9  10  11  12  13  14  15  16  17  18  19  20  21  22  23  24
 diag# | name   |   ipt  |  iMate | kLev|   count |   mate.C|           
   279 |TRAC09  |    393 |      0 |  24 |       0 |
------------------------------------------------------------------------
listId=   26 ; file name: ZOO1Fe_day
 nFlds, nActive,       freq     &     phase        , nLev               
    1  |    1  |     86400.000000         0.000000 |  24
 levels:   1   2   3   4   5   6   7   8   9  10  11  12  13  14  15  16  17  18  19  20  21  22  23  24
 diag# | name   |   ipt  |  iMate | kLev|   count |   mate.C|           
   290 |TRAC10  |    417 |      0 |  24 |       0 |
------------------------------------------------------------------------
listId=   27 ; file name: ZOO1Si_day
 nFlds, nActive,       freq     &     phase        , nLev               
    1  |    1  |     86400.000000         0.000000 |  24
 levels:   1   2   3   4   5   6   7   8   9  10  11  12  13  14  15  16  17  18  19  20  21  22  23  24
 diag# | name   |   ipt  |  iMate | kLev|   count |   mate.C|           
   301 |TRAC11  |    441 |      0 |  24 |       0 |
------------------------------------------------------------------------
listId=   28 ; file name: ZOO2P_day
 nFlds, nActive,       freq     &     phase        , nLev               
    1  |    1  |     86400.000000         0.000000 |  24
 levels:   1   2   3   4   5   6   7   8   9  10  11  12  13  14  15  16  17  18  19  20  21  22  23  24
 diag# | name   |   ipt  |  iMate | kLev|   count |   mate.C|           
   312 |TRAC12  |    465 |      0 |  24 |       0 |
------------------------------------------------------------------------
listId=   29 ; file name: ZOO2N_day
 nFlds, nActive,       freq     &     phase        , nLev               
    1  |    1  |     86400.000000         0.000000 |  24
 levels:   1   2   3   4   5   6   7   8   9  10  11  12  13  14  15  16  17  18  19  20  21  22  23  24
 diag# | name   |   ipt  |  iMate | kLev|   count |   mate.C|           
   323 |TRAC13  |    489 |      0 |  24 |       0 |
------------------------------------------------------------------------
listId=   30 ; file name: ZOO2Fe_day
 nFlds, nActive,       freq     &     phase        , nLev               
    1  |    1  |     86400.000000         0.000000 |  24
 levels:   1   2   3   4   5   6   7   8   9  10  11  12  13  14  15  16  17  18  19  20  21  22  23  24
 diag# | name   |   ipt  |  iMate | kLev|   count |   mate.C|           
   334 |TRAC14  |    513 |      0 |  24 |       0 |
------------------------------------------------------------------------
listId=   31 ; file name: ZOO2Si_day
 nFlds, nActive,       freq     &     phase        , nLev               
    1  |    1  |     86400.000000         0.000000 |  24
 levels:   1   2   3   4   5   6   7   8   9  10  11  12  13  14  15  16  17  18  19  20  21  22  23  24
 diag# | name   |   ipt  |  iMate | kLev|   count |   mate.C|           
   345 |TRAC15  |    537 |      0 |  24 |       0 |
------------------------------------------------------------------------
listId=   32 ; file name: POP_day
 nFlds, nActive,       freq     &     phase        , nLev               
    1  |    1  |     86400.000000         0.000000 |  24
 levels:   1   2   3   4   5   6   7   8   9  10  11  12  13  14  15  16  17  18  19  20  21  22  23  24
 diag# | name   |   ipt  |  iMate | kLev|   count |   mate.C|           
   356 |TRAC16  |    561 |      0 |  24 |       0 |
------------------------------------------------------------------------
listId=   33 ; file name: PON_day
 nFlds, nActive,       freq     &     phase        , nLev               
    1  |    1  |     86400.000000         0.000000 |  24
 levels:   1   2   3   4   5   6   7   8   9  10  11  12  13  14  15  16  17  18  19  20  21  22  23  24
 diag# | name   |   ipt  |  iMate | kLev|   count |   mate.C|           
   367 |TRAC17  |    585 |      0 |  24 |       0 |
------------------------------------------------------------------------
listId=   34 ; file name: POFe_day
 nFlds, nActive,       freq     &     phase        , nLev               
    1  |    1  |     86400.000000         0.000000 |  24
 levels:   1   2   3   4   5   6   7   8   9  10  11  12  13  14  15  16  17  18  19  20  21  22  23  24
 diag# | name   |   ipt  |  iMate | kLev|   count |   mate.C|           
   378 |TRAC18  |    609 |      0 |  24 |       0 |
------------------------------------------------------------------------
listId=   35 ; file name: POSi_day
 nFlds, nActive,       freq     &     phase        , nLev               
    1  |    1  |     86400.000000         0.000000 |  24
 levels:   1   2   3   4   5   6   7   8   9  10  11  12  13  14  15  16  17  18  19  20  21  22  23  24
 diag# | name   |   ipt  |  iMate | kLev|   count |   mate.C|           
   389 |TRAC19  |    633 |      0 |  24 |       0 |
------------------------------------------------------------------------
listId=   36 ; file name: NH4_day
 nFlds, nActive,       freq     &     phase        , nLev               
    1  |    1  |     86400.000000         0.000000 |  24
 levels:   1   2   3   4   5   6   7   8   9  10  11  12  13  14  15  16  17  18  19  20  21  22  23  24
 diag# | name   |   ipt  |  iMate | kLev|   count |   mate.C|           
   400 |TRAC20  |    657 |      0 |  24 |       0 |
------------------------------------------------------------------------
listId=   37 ; file name: NO2_day
 nFlds, nActive,       freq     &     phase        , nLev               
    1  |    1  |     86400.000000         0.000000 |  24
 levels:   1   2   3   4   5   6   7   8   9  10  11  12  13  14  15  16  17  18  19  20  21  22  23  24
 diag# | name   |   ipt  |  iMate | kLev|   count |   mate.C|           
   411 |TRAC21  |    681 |      0 |  24 |       0 |
------------------------------------------------------------------------
listId=   38 ; file name: Phy01_day
 nFlds, nActive,       freq     &     phase        , nLev               
    1  |    1  |     86400.000000         0.000000 |  24
 levels:   1   2   3   4   5   6   7   8   9  10  11  12  13  14  15  16  17  18  19  20  21  22  23  24
 diag# | name   |   ipt  |  iMate | kLev|   count |   mate.C|           
   422 |TRAC22  |    705 |      0 |  24 |       0 |
------------------------------------------------------------------------
listId=   39 ; file name: Phy02_day
 nFlds, nActive,       freq     &     phase        , nLev               
    1  |    1  |     86400.000000         0.000000 |  24
 levels:   1   2   3   4   5   6   7   8   9  10  11  12  13  14  15  16  17  18  19  20  21  22  23  24
 diag# | name   |   ipt  |  iMate | kLev|   count |   mate.C|           
   433 |TRAC23  |    729 |      0 |  24 |       0 |
------------------------------------------------------------------------
listId=   40 ; file name: Phy03_day
 nFlds, nActive,       freq     &     phase        , nLev               
    1  |    1  |     86400.000000         0.000000 |  24
 levels:   1   2   3   4   5   6   7   8   9  10  11  12  13  14  15  16  17  18  19  20  21  22  23  24
 diag# | name   |   ipt  |  iMate | kLev|   count |   mate.C|           
   444 |TRAC24  |    753 |      0 |  24 |       0 |
------------------------------------------------------------------------
listId=   41 ; file name: Phy04_day
 nFlds, nActive,       freq     &     phase        , nLev               
    1  |    1  |     86400.000000         0.000000 |  24
 levels:   1   2   3   4   5   6   7   8   9  10  11  12  13  14  15  16  17  18  19  20  21  22  23  24
 diag# | name   |   ipt  |  iMate | kLev|   count |   mate.C|           
   455 |TRAC25  |    777 |      0 |  24 |       0 |
------------------------------------------------------------------------
listId=   42 ; file name: Phy05_day
 nFlds, nActive,       freq     &     phase        , nLev               
    1  |    1  |     86400.000000         0.000000 |  24
 levels:   1   2   3   4   5   6   7   8   9  10  11  12  13  14  15  16  17  18  19  20  21  22  23  24
 diag# | name   |   ipt  |  iMate | kLev|   count |   mate.C|           
   466 |TRAC26  |    801 |      0 |  24 |       0 |
------------------------------------------------------------------------
listId=   43 ; file name: Phy06_day
 nFlds, nActive,       freq     &     phase        , nLev               
    1  |    1  |     86400.000000         0.000000 |  24
 levels:   1   2   3   4   5   6   7   8   9  10  11  12  13  14  15  16  17  18  19  20  21  22  23  24
 diag# | name   |   ipt  |  iMate | kLev|   count |   mate.C|           
   477 |TRAC27  |    825 |      0 |  24 |       0 |
------------------------------------------------------------------------
listId=   44 ; file name: Phy07_day
 nFlds, nActive,       freq     &     phase        , nLev               
    1  |    1  |     86400.000000         0.000000 |  24
 levels:   1   2   3   4   5   6   7   8   9  10  11  12  13  14  15  16  17  18  19  20  21  22  23  24
 diag# | name   |   ipt  |  iMate | kLev|   count |   mate.C|           
   488 |TRAC28  |    849 |      0 |  24 |       0 |
------------------------------------------------------------------------
listId=   45 ; file name: Phy08_day
 nFlds, nActive,       freq     &     phase        , nLev               
    1  |    1  |     86400.000000         0.000000 |  24
 levels:   1   2   3   4   5   6   7   8   9  10  11  12  13  14  15  16  17  18  19  20  21  22  23  24
 diag# | name   |   ipt  |  iMate | kLev|   count |   mate.C|           
   499 |TRAC29  |    873 |      0 |  24 |       0 |
------------------------------------------------------------------------
listId=   46 ; file name: Phy09_day
 nFlds, nActive,       freq     &     phase        , nLev               
    1  |    1  |     86400.000000         0.000000 |  24
 levels:   1   2   3   4   5   6   7   8   9  10  11  12  13  14  15  16  17  18  19  20  21  22  23  24
 diag# | name   |   ipt  |  iMate | kLev|   count |   mate.C|           
   510 |TRAC30  |    897 |      0 |  24 |       0 |
------------------------------------------------------------------------
listId=   47 ; file name: Phy10_day
 nFlds, nActive,       freq     &     phase        , nLev               
    1  |    1  |     86400.000000         0.000000 |  24
 levels:   1   2   3   4   5   6   7   8   9  10  11  12  13  14  15  16  17  18  19  20  21  22  23  24
 diag# | name   |   ipt  |  iMate | kLev|   count |   mate.C|           
   521 |TRAC31  |    921 |      0 |  24 |       0 |
------------------------------------------------------------------------
listId=   48 ; file name: Phy11_day
 nFlds, nActive,       freq     &     phase        , nLev               
    1  |    1  |     86400.000000         0.000000 |  24
 levels:   1   2   3   4   5   6   7   8   9  10  11  12  13  14  15  16  17  18  19  20  21  22  23  24
 diag# | name   |   ipt  |  iMate | kLev|   count |   mate.C|           
   532 |TRAC32  |    945 |      0 |  24 |       0 |
------------------------------------------------------------------------
listId=   49 ; file name: Phy12_day
 nFlds, nActive,       freq     &     phase        , nLev               
    1  |    1  |     86400.000000         0.000000 |  24
 levels:   1   2   3   4   5   6   7   8   9  10  11  12  13  14  15  16  17  18  19  20  21  22  23  24
 diag# | name   |   ipt  |  iMate | kLev|   count |   mate.C|           
   543 |TRAC33  |    969 |      0 |  24 |       0 |
------------------------------------------------------------------------
listId=   50 ; file name: Phy13_day
 nFlds, nActive,       freq     &     phase        , nLev               
    1  |    1  |     86400.000000         0.000000 |  24
 levels:   1   2   3   4   5   6   7   8   9  10  11  12  13  14  15  16  17  18  19  20  21  22  23  24
 diag# | name   |   ipt  |  iMate | kLev|   count |   mate.C|           
   554 |TRAC34  |    993 |      0 |  24 |       0 |
------------------------------------------------------------------------
listId=   51 ; file name: Phy14_day
 nFlds, nActive,       freq     &     phase        , nLev               
    1  |    1  |     86400.000000         0.000000 |  24
 levels:   1   2   3   4   5   6   7   8   9  10  11  12  13  14  15  16  17  18  19  20  21  22  23  24
 diag# | name   |   ipt  |  iMate | kLev|   count |   mate.C|           
   565 |TRAC35  |   1017 |      0 |  24 |       0 |
------------------------------------------------------------------------
listId=   52 ; file name: Phy15_day
 nFlds, nActive,       freq     &     phase        , nLev               
    1  |    1  |     86400.000000         0.000000 |  24
 levels:   1   2   3   4   5   6   7   8   9  10  11  12  13  14  15  16  17  18  19  20  21  22  23  24
 diag# | name   |   ipt  |  iMate | kLev|   count |   mate.C|           
   576 |TRAC36  |   1041 |      0 |  24 |       0 |
------------------------------------------------------------------------
listId=   53 ; file name: Phy16_day
 nFlds, nActive,       freq     &     phase        , nLev               
    1  |    1  |     86400.000000         0.000000 |  24
 levels:   1   2   3   4   5   6   7   8   9  10  11  12  13  14  15  16  17  18  19  20  21  22  23  24
 diag# | name   |   ipt  |  iMate | kLev|   count |   mate.C|           
   587 |TRAC37  |   1065 |      0 |  24 |       0 |
------------------------------------------------------------------------
listId=   54 ; file name: Phy17_day
 nFlds, nActive,       freq     &     phase        , nLev               
    1  |    1  |     86400.000000         0.000000 |  24
 levels:   1   2   3   4   5   6   7   8   9  10  11  12  13  14  15  16  17  18  19  20  21  22  23  24
 diag# | name   |   ipt  |  iMate | kLev|   count |   mate.C|           
   598 |TRAC38  |   1089 |      0 |  24 |       0 |
------------------------------------------------------------------------
listId=   55 ; file name: Phy18_day
 nFlds, nActive,       freq     &     phase        , nLev               
    1  |    1  |     86400.000000         0.000000 |  24
 levels:   1   2   3   4   5   6   7   8   9  10  11  12  13  14  15  16  17  18  19  20  21  22  23  24
 diag# | name   |   ipt  |  iMate | kLev|   count |   mate.C|           
   609 |TRAC39  |   1113 |      0 |  24 |       0 |
------------------------------------------------------------------------
listId=   56 ; file name: Phy19_day
 nFlds, nActive,       freq     &     phase        , nLev               
    1  |    1  |     86400.000000         0.000000 |  24
 levels:   1   2   3   4   5   6   7   8   9  10  11  12  13  14  15  16  17  18  19  20  21  22  23  24
 diag# | name   |   ipt  |  iMate | kLev|   count |   mate.C|           
   620 |TRAC40  |   1137 |      0 |  24 |       0 |
------------------------------------------------------------------------
listId=   57 ; file name: Phy20_day
 nFlds, nActive,       freq     &     phase        , nLev               
    1  |    1  |     86400.000000         0.000000 |  24
 levels:   1   2   3   4   5   6   7   8   9  10  11  12  13  14  15  16  17  18  19  20  21  22  23  24
 diag# | name   |   ipt  |  iMate | kLev|   count |   mate.C|           
   631 |TRAC41  |   1161 |      0 |  24 |       0 |
------------------------------------------------------------------------
listId=   58 ; file name: Phy21_day
 nFlds, nActive,       freq     &     phase        , nLev               
    1  |    1  |     86400.000000         0.000000 |  24
 levels:   1   2   3   4   5   6   7   8   9  10  11  12  13  14  15  16  17  18  19  20  21  22  23  24
 diag# | name   |   ipt  |  iMate | kLev|   count |   mate.C|           
   642 |TRAC42  |   1185 |      0 |  24 |       0 |
------------------------------------------------------------------------
listId=   59 ; file name: Phy22_day
 nFlds, nActive,       freq     &     phase        , nLev               
    1  |    1  |     86400.000000         0.000000 |  24
 levels:   1   2   3   4   5   6   7   8   9  10  11  12  13  14  15  16  17  18  19  20  21  22  23  24
 diag# | name   |   ipt  |  iMate | kLev|   count |   mate.C|           
   653 |TRAC43  |   1209 |      0 |  24 |       0 |
------------------------------------------------------------------------
listId=   60 ; file name: Phy23_day
 nFlds, nActive,       freq     &     phase        , nLev               
    1  |    1  |     86400.000000         0.000000 |  24
 levels:   1   2   3   4   5   6   7   8   9  10  11  12  13  14  15  16  17  18  19  20  21  22  23  24
 diag# | name   |   ipt  |  iMate | kLev|   count |   mate.C|           
   664 |TRAC44  |   1233 |      0 |  24 |       0 |
------------------------------------------------------------------------
listId=   61 ; file name: Phy24_day
 nFlds, nActive,       freq     &     phase        , nLev               
    1  |    1  |     86400.000000         0.000000 |  24
 levels:   1   2   3   4   5   6   7   8   9  10  11  12  13  14  15  16  17  18  19  20  21  22  23  24
 diag# | name   |   ipt  |  iMate | kLev|   count |   mate.C|           
   675 |TRAC45  |   1257 |      0 |  24 |       0 |
------------------------------------------------------------------------
listId=   62 ; file name: Phy25_day
 nFlds, nActive,       freq     &     phase        , nLev               
    1  |    1  |     86400.000000         0.000000 |  24
 levels:   1   2   3   4   5   6   7   8   9  10  11  12  13  14  15  16  17  18  19  20  21  22  23  24
 diag# | name   |   ipt  |  iMate | kLev|   count |   mate.C|           
   686 |TRAC46  |   1281 |      0 |  24 |       0 |
------------------------------------------------------------------------
listId=   63 ; file name: Phy26_day
 nFlds, nActive,       freq     &     phase        , nLev               
    1  |    1  |     86400.000000         0.000000 |  24
 levels:   1   2   3   4   5   6   7   8   9  10  11  12  13  14  15  16  17  18  19  20  21  22  23  24
 diag# | name   |   ipt  |  iMate | kLev|   count |   mate.C|           
   697 |TRAC47  |   1305 |      0 |  24 |       0 |
------------------------------------------------------------------------
listId=   64 ; file name: Phy27_day
 nFlds, nActive,       freq     &     phase        , nLev               
    1  |    1  |     86400.000000         0.000000 |  24
 levels:   1   2   3   4   5   6   7   8   9  10  11  12  13  14  15  16  17  18  19  20  21  22  23  24
 diag# | name   |   ipt  |  iMate | kLev|   count |   mate.C|           
   708 |TRAC48  |   1329 |      0 |  24 |       0 |
------------------------------------------------------------------------
listId=   65 ; file name: Phy28_day
 nFlds, nActive,       freq     &     phase        , nLev               
    1  |    1  |     86400.000000         0.000000 |  24
 levels:   1   2   3   4   5   6   7   8   9  10  11  12  13  14  15  16  17  18  19  20  21  22  23  24
 diag# | name   |   ipt  |  iMate | kLev|   count |   mate.C|           
   719 |TRAC49  |   1353 |      0 |  24 |       0 |
------------------------------------------------------------------------
listId=   66 ; file name: Phy29_day
 nFlds, nActive,       freq     &     phase        , nLev               
    1  |    1  |     86400.000000         0.000000 |  24
 levels:   1   2   3   4   5   6   7   8   9  10  11  12  13  14  15  16  17  18  19  20  21  22  23  24
 diag# | name   |   ipt  |  iMate | kLev|   count |   mate.C|           
   730 |TRAC50  |   1377 |      0 |  24 |       0 |
------------------------------------------------------------------------
listId=   67 ; file name: Phy30_day
 nFlds, nActive,       freq     &     phase        , nLev               
    1  |    1  |     86400.000000         0.000000 |  24
 levels:   1   2   3   4   5   6   7   8   9  10  11  12  13  14  15  16  17  18  19  20  21  22  23  24
 diag# | name   |   ipt  |  iMate | kLev|   count |   mate.C|           
   741 |TRAC51  |   1401 |      0 |  24 |       0 |
------------------------------------------------------------------------
listId=   68 ; file name: Phy31_day
 nFlds, nActive,       freq     &     phase        , nLev               
    1  |    1  |     86400.000000         0.000000 |  24
 levels:   1   2   3   4   5   6   7   8   9  10  11  12  13  14  15  16  17  18  19  20  21  22  23  24
 diag# | name   |   ipt  |  iMate | kLev|   count |   mate.C|           
   752 |TRAC52  |   1425 |      0 |  24 |       0 |
------------------------------------------------------------------------
listId=   69 ; file name: Phy32_day
 nFlds, nActive,       freq     &     phase        , nLev               
    1  |    1  |     86400.000000         0.000000 |  24
 levels:   1   2   3   4   5   6   7   8   9  10  11  12  13  14  15  16  17  18  19  20  21  22  23  24
 diag# | name   |   ipt  |  iMate | kLev|   count |   mate.C|           
   763 |TRAC53  |   1449 |      0 |  24 |       0 |
------------------------------------------------------------------------
listId=   70 ; file name: Phy33_day
 nFlds, nActive,       freq     &     phase        , nLev               
    1  |    1  |     86400.000000         0.000000 |  24
 levels:   1   2   3   4   5   6   7   8   9  10  11  12  13  14  15  16  17  18  19  20  21  22  23  24
 diag# | name   |   ipt  |  iMate | kLev|   count |   mate.C|           
   774 |TRAC54  |   1473 |      0 |  24 |       0 |
------------------------------------------------------------------------
listId=   71 ; file name: Phy34_day
 nFlds, nActive,       freq     &     phase        , nLev               
    1  |    1  |     86400.000000         0.000000 |  24
 levels:   1   2   3   4   5   6   7   8   9  10  11  12  13  14  15  16  17  18  19  20  21  22  23  24
 diag# | name   |   ipt  |  iMate | kLev|   count |   mate.C|           
   785 |TRAC55  |   1497 |      0 |  24 |       0 |
------------------------------------------------------------------------
listId=   72 ; file name: Phy35_day
 nFlds, nActive,       freq     &     phase        , nLev               
    1  |    1  |     86400.000000         0.000000 |  24
 levels:   1   2   3   4   5   6   7   8   9  10  11  12  13  14  15  16  17  18  19  20  21  22  23  24
 diag# | name   |   ipt  |  iMate | kLev|   count |   mate.C|           
   796 |TRAC56  |   1521 |      0 |  24 |       0 |
------------------------------------------------------------------------
listId=   73 ; file name: Phy36_day
 nFlds, nActive,       freq     &     phase        , nLev               
    1  |    1  |     86400.000000         0.000000 |  24
 levels:   1   2   3   4   5   6   7   8   9  10  11  12  13  14  15  16  17  18  19  20  21  22  23  24
 diag# | name   |   ipt  |  iMate | kLev|   count |   mate.C|           
   807 |TRAC57  |   1545 |      0 |  24 |       0 |
------------------------------------------------------------------------
listId=   74 ; file name: Phy37_day
 nFlds, nActive,       freq     &     phase        , nLev               
    1  |    1  |     86400.000000         0.000000 |  24
 levels:   1   2   3   4   5   6   7   8   9  10  11  12  13  14  15  16  17  18  19  20  21  22  23  24
 diag# | name   |   ipt  |  iMate | kLev|   count |   mate.C|           
   818 |TRAC58  |   1569 |      0 |  24 |       0 |
------------------------------------------------------------------------
listId=   75 ; file name: Phy38_day
 nFlds, nActive,       freq     &     phase        , nLev               
    1  |    1  |     86400.000000         0.000000 |  24
 levels:   1   2   3   4   5   6   7   8   9  10  11  12  13  14  15  16  17  18  19  20  21  22  23  24
 diag# | name   |   ipt  |  iMate | kLev|   count |   mate.C|           
   829 |TRAC59  |   1593 |      0 |  24 |       0 |
------------------------------------------------------------------------
listId=   76 ; file name: Phy39_day
 nFlds, nActive,       freq     &     phase        , nLev               
    1  |    1  |     86400.000000         0.000000 |  24
 levels:   1   2   3   4   5   6   7   8   9  10  11  12  13  14  15  16  17  18  19  20  21  22  23  24
 diag# | name   |   ipt  |  iMate | kLev|   count |   mate.C|           
   840 |TRAC60  |   1617 |      0 |  24 |       0 |
------------------------------------------------------------------------
listId=   77 ; file name: Phy40_day
 nFlds, nActive,       freq     &     phase        , nLev               
    1  |    1  |     86400.000000         0.000000 |  24
 levels:   1   2   3   4   5   6   7   8   9  10  11  12  13  14  15  16  17  18  19  20  21  22  23  24
 diag# | name   |   ipt  |  iMate | kLev|   count |   mate.C|           
   851 |TRAC61  |   1641 |      0 |  24 |       0 |
------------------------------------------------------------------------
listId=   78 ; file name: Phy41_day
 nFlds, nActive,       freq     &     phase        , nLev               
    1  |    1  |     86400.000000         0.000000 |  24
 levels:   1   2   3   4   5   6   7   8   9  10  11  12  13  14  15  16  17  18  19  20  21  22  23  24
 diag# | name   |   ipt  |  iMate | kLev|   count |   mate.C|           
   862 |TRAC62  |   1665 |      0 |  24 |       0 |
------------------------------------------------------------------------
listId=   79 ; file name: Phy42_day
 nFlds, nActive,       freq     &     phase        , nLev               
    1  |    1  |     86400.000000         0.000000 |  24
 levels:   1   2   3   4   5   6   7   8   9  10  11  12  13  14  15  16  17  18  19  20  21  22  23  24
 diag# | name   |   ipt  |  iMate | kLev|   count |   mate.C|           
   873 |TRAC63  |   1689 |      0 |  24 |       0 |
------------------------------------------------------------------------
listId=   80 ; file name: Phy43_day
 nFlds, nActive,       freq     &     phase        , nLev               
    1  |    1  |     86400.000000         0.000000 |  24
 levels:   1   2   3   4   5   6   7   8   9  10  11  12  13  14  15  16  17  18  19  20  21  22  23  24
 diag# | name   |   ipt  |  iMate | kLev|   count |   mate.C|           
   884 |TRAC64  |   1713 |      0 |  24 |       0 |
------------------------------------------------------------------------
listId=   81 ; file name: Phy44_day
 nFlds, nActive,       freq     &     phase        , nLev               
    1  |    1  |     86400.000000         0.000000 |  24
 levels:   1   2   3   4   5   6   7   8   9  10  11  12  13  14  15  16  17  18  19  20  21  22  23  24
 diag# | name   |   ipt  |  iMate | kLev|   count |   mate.C|           
   895 |TRAC65  |   1737 |      0 |  24 |       0 |
------------------------------------------------------------------------
listId=   82 ; file name: Phy45_day
 nFlds, nActive,       freq     &     phase        , nLev               
    1  |    1  |     86400.000000         0.000000 |  24
 levels:   1   2   3   4   5   6   7   8   9  10  11  12  13  14  15  16  17  18  19  20  21  22  23  24
 diag# | name   |   ipt  |  iMate | kLev|   count |   mate.C|           
   906 |TRAC66  |   1761 |      0 |  24 |       0 |
------------------------------------------------------------------------
listId=   83 ; file name: Phy46_day
 nFlds, nActive,       freq     &     phase        , nLev               
    1  |    1  |     86400.000000         0.000000 |  24
 levels:   1   2   3   4   5   6   7   8   9  10  11  12  13  14  15  16  17  18  19  20  21  22  23  24
 diag# | name   |   ipt  |  iMate | kLev|   count |   mate.C|           
   917 |TRAC67  |   1785 |      0 |  24 |       0 |
------------------------------------------------------------------------
listId=   84 ; file name: Phy47_day
 nFlds, nActive,       freq     &     phase        , nLev               
    1  |    1  |     86400.000000         0.000000 |  24
 levels:   1   2   3   4   5   6   7   8   9  10  11  12  13  14  15  16  17  18  19  20  21  22  23  24
 diag# | name   |   ipt  |  iMate | kLev|   count |   mate.C|           
   928 |TRAC68  |   1809 |      0 |  24 |       0 |
------------------------------------------------------------------------
listId=   85 ; file name: Phy48_day
 nFlds, nActive,       freq     &     phase        , nLev               
    1  |    1  |     86400.000000         0.000000 |  24
 levels:   1   2   3   4   5   6   7   8   9  10  11  12  13  14  15  16  17  18  19  20  21  22  23  24
 diag# | name   |   ipt  |  iMate | kLev|   count |   mate.C|           
   939 |TRAC69  |   1833 |      0 |  24 |       0 |
------------------------------------------------------------------------
listId=   86 ; file name: Phy49_day
 nFlds, nActive,       freq     &     phase        , nLev               
    1  |    1  |     86400.000000         0.000000 |  24
 levels:   1   2   3   4   5   6   7   8   9  10  11  12  13  14  15  16  17  18  19  20  21  22  23  24
 diag# | name   |   ipt  |  iMate | kLev|   count |   mate.C|           
   950 |TRAC70  |   1857 |      0 |  24 |       0 |
------------------------------------------------------------------------
listId=   87 ; file name: Phy50_day
 nFlds, nActive,       freq     &     phase        , nLev               
    1  |    1  |     86400.000000         0.000000 |  24
 levels:   1   2   3   4   5   6   7   8   9  10  11  12  13  14  15  16  17  18  19  20  21  22  23  24
 diag# | name   |   ipt  |  iMate | kLev|   count |   mate.C|           
   961 |TRAC71  |   1881 |      0 |  24 |       0 |
------------------------------------------------------------------------
listId=   88 ; file name: Phy51_day
 nFlds, nActive,       freq     &     phase        , nLev               
    1  |    1  |     86400.000000         0.000000 |  24
 levels:   1   2   3   4   5   6   7   8   9  10  11  12  13  14  15  16  17  18  19  20  21  22  23  24
 diag# | name   |   ipt  |  iMate | kLev|   count |   mate.C|           
   972 |TRAC72  |   1905 |      0 |  24 |       0 |
------------------------------------------------------------------------
listId=   89 ; file name: Phy52_day
 nFlds, nActive,       freq     &     phase        , nLev               
    1  |    1  |     86400.000000         0.000000 |  24
 levels:   1   2   3   4   5   6   7   8   9  10  11  12  13  14  15  16  17  18  19  20  21  22  23  24
 diag# | name   |   ipt  |  iMate | kLev|   count |   mate.C|           
   983 |TRAC73  |   1929 |      0 |  24 |       0 |
------------------------------------------------------------------------
listId=   90 ; file name: Phy53_day
 nFlds, nActive,       freq     &     phase        , nLev               
    1  |    1  |     86400.000000         0.000000 |  24
 levels:   1   2   3   4   5   6   7   8   9  10  11  12  13  14  15  16  17  18  19  20  21  22  23  24
 diag# | name   |   ipt  |  iMate | kLev|   count |   mate.C|           
   994 |TRAC74  |   1953 |      0 |  24 |       0 |
------------------------------------------------------------------------
listId=   91 ; file name: Phy54_day
 nFlds, nActive,       freq     &     phase        , nLev               
    1  |    1  |     86400.000000         0.000000 |  24
 levels:   1   2   3   4   5   6   7   8   9  10  11  12  13  14  15  16  17  18  19  20  21  22  23  24
 diag# | name   |   ipt  |  iMate | kLev|   count |   mate.C|           
  1005 |TRAC75  |   1977 |      0 |  24 |       0 |
------------------------------------------------------------------------
listId=   92 ; file name: Phy55_day
 nFlds, nActive,       freq     &     phase        , nLev               
    1  |    1  |     86400.000000         0.000000 |  24
 levels:   1   2   3   4   5   6   7   8   9  10  11  12  13  14  15  16  17  18  19  20  21  22  23  24
 diag# | name   |   ipt  |  iMate | kLev|   count |   mate.C|           
  1016 |TRAC76  |   2001 |      0 |  24 |       0 |
------------------------------------------------------------------------
listId=   93 ; file name: Phy56_day
 nFlds, nActive,       freq     &     phase        , nLev               
    1  |    1  |     86400.000000         0.000000 |  24
 levels:   1   2   3   4   5   6   7   8   9  10  11  12  13  14  15  16  17  18  19  20  21  22  23  24
 diag# | name   |   ipt  |  iMate | kLev|   count |   mate.C|           
  1027 |TRAC77  |   2025 |      0 |  24 |       0 |
------------------------------------------------------------------------
listId=   94 ; file name: Phy57_day
 nFlds, nActive,       freq     &     phase        , nLev               
    1  |    1  |     86400.000000         0.000000 |  24
 levels:   1   2   3   4   5   6   7   8   9  10  11  12  13  14  15  16  17  18  19  20  21  22  23  24
 diag# | name   |   ipt  |  iMate | kLev|   count |   mate.C|           
  1038 |TRAC78  |   2049 |      0 |  24 |       0 |
------------------------------------------------------------------------
listId=   95 ; file name: Phy58_day
 nFlds, nActive,       freq     &     phase        , nLev               
    1  |    1  |     86400.000000         0.000000 |  24
 levels:   1   2   3   4   5   6   7   8   9  10  11  12  13  14  15  16  17  18  19  20  21  22  23  24
 diag# | name   |   ipt  |  iMate | kLev|   count |   mate.C|           
  1049 |TRAC79  |   2073 |      0 |  24 |       0 |
------------------------------------------------------------------------
listId=   96 ; file name: Phy59_day
 nFlds, nActive,       freq     &     phase        , nLev               
    1  |    1  |     86400.000000         0.000000 |  24
 levels:   1   2   3   4   5   6   7   8   9  10  11  12  13  14  15  16  17  18  19  20  21  22  23  24
 diag# | name   |   ipt  |  iMate | kLev|   count |   mate.C|           
  1060 |TRAC80  |   2097 |      0 |  24 |       0 |
------------------------------------------------------------------------
listId=   97 ; file name: Phy60_day
 nFlds, nActive,       freq     &     phase        , nLev               
    1  |    1  |     86400.000000         0.000000 |  24
 levels:   1   2   3   4   5   6   7   8   9  10  11  12  13  14  15  16  17  18  19  20  21  22  23  24
 diag# | name   |   ipt  |  iMate | kLev|   count |   mate.C|           
  1071 |TRAC81  |   2121 |      0 |  24 |       0 |
------------------------------------------------------------------------
listId=   98 ; file name: Phy61_day
 nFlds, nActive,       freq     &     phase        , nLev               
    1  |    1  |     86400.000000         0.000000 |  24
 levels:   1   2   3   4   5   6   7   8   9  10  11  12  13  14  15  16  17  18  19  20  21  22  23  24
 diag# | name   |   ipt  |  iMate | kLev|   count |   mate.C|           
  1082 |TRAC82  |   2145 |      0 |  24 |       0 |
------------------------------------------------------------------------
listId=   99 ; file name: Phy62_day
 nFlds, nActive,       freq     &     phase        , nLev               
    1  |    1  |     86400.000000         0.000000 |  24
 levels:   1   2   3   4   5   6   7   8   9  10  11  12  13  14  15  16  17  18  19  20  21  22  23  24
 diag# | name   |   ipt  |  iMate | kLev|   count |   mate.C|           
  1093 |TRAC83  |   2169 |      0 |  24 |       0 |
------------------------------------------------------------------------
listId=  100 ; file name: Phy63_day
 nFlds, nActive,       freq     &     phase        , nLev               
    1  |    1  |     86400.000000         0.000000 |  24
 levels:   1   2   3   4   5   6   7   8   9  10  11  12  13  14  15  16  17  18  19  20  21  22  23  24
 diag# | name   |   ipt  |  iMate | kLev|   count |   mate.C|           
  1104 |TRAC84  |   2193 |      0 |  24 |       0 |
------------------------------------------------------------------------
listId=  101 ; file name: Phy64_day
 nFlds, nActive,       freq     &     phase        , nLev               
    1  |    1  |     86400.000000         0.000000 |  24
 levels:   1   2   3   4   5   6   7   8   9  10  11  12  13  14  15  16  17  18  19  20  21  22  23  24
 diag# | name   |   ipt  |  iMate | kLev|   count |   mate.C|           
  1115 |TRAC85  |   2217 |      0 |  24 |       0 |
------------------------------------------------------------------------
listId=  102 ; file name: Phy65_day
 nFlds, nActive,       freq     &     phase        , nLev               
    1  |    1  |     86400.000000         0.000000 |  24
 levels:   1   2   3   4   5   6   7   8   9  10  11  12  13  14  15  16  17  18  19  20  21  22  23  24
 diag# | name   |   ipt  |  iMate | kLev|   count |   mate.C|           
  1126 |TRAC86  |   2241 |      0 |  24 |       0 |
------------------------------------------------------------------------
listId=  103 ; file name: Phy66_day
 nFlds, nActive,       freq     &     phase        , nLev               
    1  |    1  |     86400.000000         0.000000 |  24
 levels:   1   2   3   4   5   6   7   8   9  10  11  12  13  14  15  16  17  18  19  20  21  22  23  24
 diag# | name   |   ipt  |  iMate | kLev|   count |   mate.C|           
  1137 |TRAC87  |   2265 |      0 |  24 |       0 |
------------------------------------------------------------------------
listId=  104 ; file name: Phy67_day
 nFlds, nActive,       freq     &     phase        , nLev               
    1  |    1  |     86400.000000         0.000000 |  24
 levels:   1   2   3   4   5   6   7   8   9  10  11  12  13  14  15  16  17  18  19  20  21  22  23  24
 diag# | name   |   ipt  |  iMate | kLev|   count |   mate.C|           
  1148 |TRAC88  |   2289 |      0 |  24 |       0 |
------------------------------------------------------------------------
listId=  105 ; file name: Phy68_day
 nFlds, nActive,       freq     &     phase        , nLev               
    1  |    1  |     86400.000000         0.000000 |  24
 levels:   1   2   3   4   5   6   7   8   9  10  11  12  13  14  15  16  17  18  19  20  21  22  23  24
 diag# | name   |   ipt  |  iMate | kLev|   count |   mate.C|           
  1159 |TRAC89  |   2313 |      0 |  24 |       0 |
------------------------------------------------------------------------
listId=  106 ; file name: Phy69_day
 nFlds, nActive,       freq     &     phase        , nLev               
    1  |    1  |     86400.000000         0.000000 |  24
 levels:   1   2   3   4   5   6   7   8   9  10  11  12  13  14  15  16  17  18  19  20  21  22  23  24
 diag# | name   |   ipt  |  iMate | kLev|   count |   mate.C|           
  1170 |TRAC90  |   2337 |      0 |  24 |       0 |
------------------------------------------------------------------------
listId=  107 ; file name: Phy70_day
 nFlds, nActive,       freq     &     phase        , nLev               
    1  |    1  |     86400.000000         0.000000 |  24
 levels:   1   2   3   4   5   6   7   8   9  10  11  12  13  14  15  16  17  18  19  20  21  22  23  24
 diag# | name   |   ipt  |  iMate | kLev|   count |   mate.C|           
  1181 |TRAC91  |   2361 |      0 |  24 |       0 |
------------------------------------------------------------------------
listId=  108 ; file name: Phy71_day
 nFlds, nActive,       freq     &     phase        , nLev               
    1  |    1  |     86400.000000         0.000000 |  24
 levels:   1   2   3   4   5   6   7   8   9  10  11  12  13  14  15  16  17  18  19  20  21  22  23  24
 diag# | name   |   ipt  |  iMate | kLev|   count |   mate.C|           
  1192 |TRAC92  |   2385 |      0 |  24 |       0 |
------------------------------------------------------------------------
listId=  109 ; file name: Phy72_day
 nFlds, nActive,       freq     &     phase        , nLev               
    1  |    1  |     86400.000000         0.000000 |  24
 levels:   1   2   3   4   5   6   7   8   9  10  11  12  13  14  15  16  17  18  19  20  21  22  23  24
 diag# | name   |   ipt  |  iMate | kLev|   count |   mate.C|           
  1203 |TRAC93  |   2409 |      0 |  24 |       0 |
------------------------------------------------------------------------
listId=  110 ; file name: Phy73_day
 nFlds, nActive,       freq     &     phase        , nLev               
    1  |    1  |     86400.000000         0.000000 |  24
 levels:   1   2   3   4   5   6   7   8   9  10  11  12  13  14  15  16  17  18  19  20  21  22  23  24
 diag# | name   |   ipt  |  iMate | kLev|   count |   mate.C|           
  1214 |TRAC94  |   2433 |      0 |  24 |       0 |
------------------------------------------------------------------------
listId=  111 ; file name: Phy74_day
 nFlds, nActive,       freq     &     phase        , nLev               
    1  |    1  |     86400.000000         0.000000 |  24
 levels:   1   2   3   4   5   6   7   8   9  10  11  12  13  14  15  16  17  18  19  20  21  22  23  24
 diag# | name   |   ipt  |  iMate | kLev|   count |   mate.C|           
  1225 |TRAC95  |   2457 |      0 |  24 |       0 |
------------------------------------------------------------------------
listId=  112 ; file name: Phy75_day
 nFlds, nActive,       freq     &     phase        , nLev               
    1  |    1  |     86400.000000         0.000000 |  24
 levels:   1   2   3   4   5   6   7   8   9  10  11  12  13  14  15  16  17  18  19  20  21  22  23  24
 diag# | name   |   ipt  |  iMate | kLev|   count |   mate.C|           
  1236 |TRAC96  |   2481 |      0 |  24 |       0 |
------------------------------------------------------------------------
listId=  113 ; file name: Phy76_day
 nFlds, nActive,       freq     &     phase        , nLev               
    1  |    1  |     86400.000000         0.000000 |  24
 levels:   1   2   3   4   5   6   7   8   9  10  11  12  13  14  15  16  17  18  19  20  21  22  23  24
 diag# | name   |   ipt  |  iMate | kLev|   count |   mate.C|           
  1247 |TRAC97  |   2505 |      0 |  24 |       0 |
------------------------------------------------------------------------
listId=  114 ; file name: Phy77_day
 nFlds, nActive,       freq     &     phase        , nLev               
    1  |    1  |     86400.000000         0.000000 |  24
 levels:   1   2   3   4   5   6   7   8   9  10  11  12  13  14  15  16  17  18  19  20  21  22  23  24
 diag# | name   |   ipt  |  iMate | kLev|   count |   mate.C|           
  1258 |TRAC98  |   2529 |      0 |  24 |       0 |
------------------------------------------------------------------------
listId=  115 ; file name: Phy78_day
 nFlds, nActive,       freq     &     phase        , nLev               
    1  |    1  |     86400.000000         0.000000 |  24
 levels:   1   2   3   4   5   6   7   8   9  10  11  12  13  14  15  16  17  18  19  20  21  22  23  24
 diag# | name   |   ipt  |  iMate | kLev|   count |   mate.C|           
  1269 |TRAC99  |   2553 |      0 |  24 |       0 |
------------------------------------------------------------------------
listId=  116 ; file name: PO4
 nFlds, nActive,       freq     &     phase        , nLev               
    1  |    1  |    -86400.000000         0.000000 |  24
 levels:   1   2   3   4   5   6   7   8   9  10  11  12  13  14  15  16  17  18  19  20  21  22  23  24
 diag# | name   |   ipt  |  iMate | kLev|   count |   mate.C|           
   191 |TRAC01  |   2577 |      0 |  24 |       0 |
------------------------------------------------------------------------
listId=  117 ; file name: NO3
 nFlds, nActive,       freq     &     phase        , nLev               
    1  |    1  |    -86400.000000         0.000000 |  24
 levels:   1   2   3   4   5   6   7   8   9  10  11  12  13  14  15  16  17  18  19  20  21  22  23  24
 diag# | name   |   ipt  |  iMate | kLev|   count |   mate.C|           
   202 |TRAC02  |   2601 |      0 |  24 |       0 |
------------------------------------------------------------------------
listId=  118 ; file name: FeT
 nFlds, nActive,       freq     &     phase        , nLev               
    1  |    1  |    -86400.000000         0.000000 |  24
 levels:   1   2   3   4   5   6   7   8   9  10  11  12  13  14  15  16  17  18  19  20  21  22  23  24
 diag# | name   |   ipt  |  iMate | kLev|   count |   mate.C|           
   213 |TRAC03  |   2625 |      0 |  24 |       0 |
------------------------------------------------------------------------
listId=  119 ; file name: SiO2
 nFlds, nActive,       freq     &     phase        , nLev               
    1  |    1  |    -86400.000000         0.000000 |  24
 levels:   1   2   3   4   5   6   7   8   9  10  11  12  13  14  15  16  17  18  19  20  21  22  23  24
 diag# | name   |   ipt  |  iMate | kLev|   count |   mate.C|           
   224 |TRAC04  |   2649 |      0 |  24 |       0 |
------------------------------------------------------------------------
listId=  120 ; file name: DOP
 nFlds, nActive,       freq     &     phase        , nLev               
    1  |    1  |    -86400.000000         0.000000 |  24
 levels:   1   2   3   4   5   6   7   8   9  10  11  12  13  14  15  16  17  18  19  20  21  22  23  24
 diag# | name   |   ipt  |  iMate | kLev|   count |   mate.C|           
   235 |TRAC05  |   2673 |      0 |  24 |       0 |
------------------------------------------------------------------------
listId=  121 ; file name: DON
 nFlds, nActive,       freq     &     phase        , nLev               
    1  |    1  |    -86400.000000         0.000000 |  24
 levels:   1   2   3   4   5   6   7   8   9  10  11  12  13  14  15  16  17  18  19  20  21  22  23  24
 diag# | name   |   ipt  |  iMate | kLev|   count |   mate.C|           
   246 |TRAC06  |   2697 |      0 |  24 |       0 |
------------------------------------------------------------------------
listId=  122 ; file name: DOFe
 nFlds, nActive,       freq     &     phase        , nLev               
    1  |    1  |    -86400.000000         0.000000 |  24
 levels:   1   2   3   4   5   6   7   8   9  10  11  12  13  14  15  16  17  18  19  20  21  22  23  24
 diag# | name   |   ipt  |  iMate | kLev|   count |   mate.C|           
   257 |TRAC07  |   2721 |      0 |  24 |       0 |
------------------------------------------------------------------------
listId=  123 ; file name: ZOO1P
 nFlds, nActive,       freq     &     phase        , nLev               
    1  |    1  |    -86400.000000         0.000000 |  24
 levels:   1   2   3   4   5   6   7   8   9  10  11  12  13  14  15  16  17  18  19  20  21  22  23  24
 diag# | name   |   ipt  |  iMate | kLev|   count |   mate.C|           
   268 |TRAC08  |   2745 |      0 |  24 |       0 |
------------------------------------------------------------------------
listId=  124 ; file name: ZOO1N
 nFlds, nActive,       freq     &     phase        , nLev               
    1  |    1  |    -86400.000000         0.000000 |  24
 levels:   1   2   3   4   5   6   7   8   9  10  11  12  13  14  15  16  17  18  19  20  21  22  23  24
 diag# | name   |   ipt  |  iMate | kLev|   count |   mate.C|           
   279 |TRAC09  |   2769 |      0 |  24 |       0 |
------------------------------------------------------------------------
listId=  125 ; file name: ZOO1Fe
 nFlds, nActive,       freq     &     phase        , nLev               
    1  |    1  |    -86400.000000         0.000000 |  24
 levels:   1   2   3   4   5   6   7   8   9  10  11  12  13  14  15  16  17  18  19  20  21  22  23  24
 diag# | name   |   ipt  |  iMate | kLev|   count |   mate.C|           
   290 |TRAC10  |   2793 |      0 |  24 |       0 |
------------------------------------------------------------------------
listId=  126 ; file name: ZOO1Si
 nFlds, nActive,       freq     &     phase        , nLev               
    1  |    1  |    -86400.000000         0.000000 |  24
 levels:   1   2   3   4   5   6   7   8   9  10  11  12  13  14  15  16  17  18  19  20  21  22  23  24
 diag# | name   |   ipt  |  iMate | kLev|   count |   mate.C|           
   301 |TRAC11  |   2817 |      0 |  24 |       0 |
------------------------------------------------------------------------
listId=  127 ; file name: ZOO2P
 nFlds, nActive,       freq     &     phase        , nLev               
    1  |    1  |    -86400.000000         0.000000 |  24
 levels:   1   2   3   4   5   6   7   8   9  10  11  12  13  14  15  16  17  18  19  20  21  22  23  24
 diag# | name   |   ipt  |  iMate | kLev|   count |   mate.C|           
   312 |TRAC12  |   2841 |      0 |  24 |       0 |
------------------------------------------------------------------------
listId=  128 ; file name: ZOO2N
 nFlds, nActive,       freq     &     phase        , nLev               
    1  |    1  |    -86400.000000         0.000000 |  24
 levels:   1   2   3   4   5   6   7   8   9  10  11  12  13  14  15  16  17  18  19  20  21  22  23  24
 diag# | name   |   ipt  |  iMate | kLev|   count |   mate.C|           
   323 |TRAC13  |   2865 |      0 |  24 |       0 |
------------------------------------------------------------------------
listId=  129 ; file name: ZOO2Fe
 nFlds, nActive,       freq     &     phase        , nLev               
    1  |    1  |    -86400.000000         0.000000 |  24
 levels:   1   2   3   4   5   6   7   8   9  10  11  12  13  14  15  16  17  18  19  20  21  22  23  24
 diag# | name   |   ipt  |  iMate | kLev|   count |   mate.C|           
   334 |TRAC14  |   2889 |      0 |  24 |       0 |
------------------------------------------------------------------------
listId=  130 ; file name: ZOO2Si
 nFlds, nActive,       freq     &     phase        , nLev               
    1  |    1  |    -86400.000000         0.000000 |  24
 levels:   1   2   3   4   5   6   7   8   9  10  11  12  13  14  15  16  17  18  19  20  21  22  23  24
 diag# | name   |   ipt  |  iMate | kLev|   count |   mate.C|           
   345 |TRAC15  |   2913 |      0 |  24 |       0 |
------------------------------------------------------------------------
listId=  131 ; file name: POP
 nFlds, nActive,       freq     &     phase        , nLev               
    1  |    1  |    -86400.000000         0.000000 |  24
 levels:   1   2   3   4   5   6   7   8   9  10  11  12  13  14  15  16  17  18  19  20  21  22  23  24
 diag# | name   |   ipt  |  iMate | kLev|   count |   mate.C|           
   356 |TRAC16  |   2937 |      0 |  24 |       0 |
------------------------------------------------------------------------
listId=  132 ; file name: PON
 nFlds, nActive,       freq     &     phase        , nLev               
    1  |    1  |    -86400.000000         0.000000 |  24
 levels:   1   2   3   4   5   6   7   8   9  10  11  12  13  14  15  16  17  18  19  20  21  22  23  24
 diag# | name   |   ipt  |  iMate | kLev|   count |   mate.C|           
   367 |TRAC17  |   2961 |      0 |  24 |       0 |
------------------------------------------------------------------------
listId=  133 ; file name: POFe
 nFlds, nActive,       freq     &     phase        , nLev               
    1  |    1  |    -86400.000000         0.000000 |  24
 levels:   1   2   3   4   5   6   7   8   9  10  11  12  13  14  15  16  17  18  19  20  21  22  23  24
 diag# | name   |   ipt  |  iMate | kLev|   count |   mate.C|           
   378 |TRAC18  |   2985 |      0 |  24 |       0 |
------------------------------------------------------------------------
listId=  134 ; file name: POSi
 nFlds, nActive,       freq     &     phase        , nLev               
    1  |    1  |    -86400.000000         0.000000 |  24
 levels:   1   2   3   4   5   6   7   8   9  10  11  12  13  14  15  16  17  18  19  20  21  22  23  24
 diag# | name   |   ipt  |  iMate | kLev|   count |   mate.C|           
   389 |TRAC19  |   3009 |      0 |  24 |       0 |
------------------------------------------------------------------------
listId=  135 ; file name: NH4
 nFlds, nActive,       freq     &     phase        , nLev               
    1  |    1  |    -86400.000000         0.000000 |  24
 levels:   1   2   3   4   5   6   7   8   9  10  11  12  13  14  15  16  17  18  19  20  21  22  23  24
 diag# | name   |   ipt  |  iMate | kLev|   count |   mate.C|           
   400 |TRAC20  |   3033 |      0 |  24 |       0 |
------------------------------------------------------------------------
listId=  136 ; file name: NO2
 nFlds, nActive,       freq     &     phase        , nLev               
    1  |    1  |    -86400.000000         0.000000 |  24
 levels:   1   2   3   4   5   6   7   8   9  10  11  12  13  14  15  16  17  18  19  20  21  22  23  24
 diag# | name   |   ipt  |  iMate | kLev|   count |   mate.C|           
   411 |TRAC21  |   3057 |      0 |  24 |       0 |
------------------------------------------------------------------------
listId=  137 ; file name: Phy01
 nFlds, nActive,       freq     &     phase        , nLev               
    1  |    1  |    -86400.000000         0.000000 |  24
 levels:   1   2   3   4   5   6   7   8   9  10  11  12  13  14  15  16  17  18  19  20  21  22  23  24
 diag# | name   |   ipt  |  iMate | kLev|   count |   mate.C|           
   422 |TRAC22  |   3081 |      0 |  24 |       0 |
------------------------------------------------------------------------
listId=  138 ; file name: Phy02
 nFlds, nActive,       freq     &     phase        , nLev               
    1  |    1  |    -86400.000000         0.000000 |  24
 levels:   1   2   3   4   5   6   7   8   9  10  11  12  13  14  15  16  17  18  19  20  21  22  23  24
 diag# | name   |   ipt  |  iMate | kLev|   count |   mate.C|           
   433 |TRAC23  |   3105 |      0 |  24 |       0 |
------------------------------------------------------------------------
listId=  139 ; file name: Phy03
 nFlds, nActive,       freq     &     phase        , nLev               
    1  |    1  |    -86400.000000         0.000000 |  24
 levels:   1   2   3   4   5   6   7   8   9  10  11  12  13  14  15  16  17  18  19  20  21  22  23  24
 diag# | name   |   ipt  |  iMate | kLev|   count |   mate.C|           
   444 |TRAC24  |   3129 |      0 |  24 |       0 |
------------------------------------------------------------------------
listId=  140 ; file name: Phy04
 nFlds, nActive,       freq     &     phase        , nLev               
    1  |    1  |    -86400.000000         0.000000 |  24
 levels:   1   2   3   4   5   6   7   8   9  10  11  12  13  14  15  16  17  18  19  20  21  22  23  24
 diag# | name   |   ipt  |  iMate | kLev|   count |   mate.C|           
   455 |TRAC25  |   3153 |      0 |  24 |       0 |
------------------------------------------------------------------------
listId=  141 ; file name: Phy05
 nFlds, nActive,       freq     &     phase        , nLev               
    1  |    1  |    -86400.000000         0.000000 |  24
 levels:   1   2   3   4   5   6   7   8   9  10  11  12  13  14  15  16  17  18  19  20  21  22  23  24
 diag# | name   |   ipt  |  iMate | kLev|   count |   mate.C|           
   466 |TRAC26  |   3177 |      0 |  24 |       0 |
------------------------------------------------------------------------
listId=  142 ; file name: Phy06
 nFlds, nActive,       freq     &     phase        , nLev               
    1  |    1  |    -86400.000000         0.000000 |  24
 levels:   1   2   3   4   5   6   7   8   9  10  11  12  13  14  15  16  17  18  19  20  21  22  23  24
 diag# | name   |   ipt  |  iMate | kLev|   count |   mate.C|           
   477 |TRAC27  |   3201 |      0 |  24 |       0 |
------------------------------------------------------------------------
listId=  143 ; file name: Phy07
 nFlds, nActive,       freq     &     phase        , nLev               
    1  |    1  |    -86400.000000         0.000000 |  24
 levels:   1   2   3   4   5   6   7   8   9  10  11  12  13  14  15  16  17  18  19  20  21  22  23  24
 diag# | name   |   ipt  |  iMate | kLev|   count |   mate.C|           
   488 |TRAC28  |   3225 |      0 |  24 |       0 |
------------------------------------------------------------------------
listId=  144 ; file name: Phy08
 nFlds, nActive,       freq     &     phase        , nLev               
    1  |    1  |    -86400.000000         0.000000 |  24
 levels:   1   2   3   4   5   6   7   8   9  10  11  12  13  14  15  16  17  18  19  20  21  22  23  24
 diag# | name   |   ipt  |  iMate | kLev|   count |   mate.C|           
   499 |TRAC29  |   3249 |      0 |  24 |       0 |
------------------------------------------------------------------------
listId=  145 ; file name: Phy09
 nFlds, nActive,       freq     &     phase        , nLev               
    1  |    1  |    -86400.000000         0.000000 |  24
 levels:   1   2   3   4   5   6   7   8   9  10  11  12  13  14  15  16  17  18  19  20  21  22  23  24
 diag# | name   |   ipt  |  iMate | kLev|   count |   mate.C|           
   510 |TRAC30  |   3273 |      0 |  24 |       0 |
------------------------------------------------------------------------
listId=  146 ; file name: Phy10
 nFlds, nActive,       freq     &     phase        , nLev               
    1  |    1  |    -86400.000000         0.000000 |  24
 levels:   1   2   3   4   5   6   7   8   9  10  11  12  13  14  15  16  17  18  19  20  21  22  23  24
 diag# | name   |   ipt  |  iMate | kLev|   count |   mate.C|           
   521 |TRAC31  |   3297 |      0 |  24 |       0 |
------------------------------------------------------------------------
listId=  147 ; file name: Phy11
 nFlds, nActive,       freq     &     phase        , nLev               
    1  |    1  |    -86400.000000         0.000000 |  24
 levels:   1   2   3   4   5   6   7   8   9  10  11  12  13  14  15  16  17  18  19  20  21  22  23  24
 diag# | name   |   ipt  |  iMate | kLev|   count |   mate.C|           
   532 |TRAC32  |   3321 |      0 |  24 |       0 |
------------------------------------------------------------------------
listId=  148 ; file name: Phy12
 nFlds, nActive,       freq     &     phase        , nLev               
    1  |    1  |    -86400.000000         0.000000 |  24
 levels:   1   2   3   4   5   6   7   8   9  10  11  12  13  14  15  16  17  18  19  20  21  22  23  24
 diag# | name   |   ipt  |  iMate | kLev|   count |   mate.C|           
   543 |TRAC33  |   3345 |      0 |  24 |       0 |
------------------------------------------------------------------------
listId=  149 ; file name: Phy13
 nFlds, nActive,       freq     &     phase        , nLev               
    1  |    1  |    -86400.000000         0.000000 |  24
 levels:   1   2   3   4   5   6   7   8   9  10  11  12  13  14  15  16  17  18  19  20  21  22  23  24
 diag# | name   |   ipt  |  iMate | kLev|   count |   mate.C|           
   554 |TRAC34  |   3369 |      0 |  24 |       0 |
------------------------------------------------------------------------
listId=  150 ; file name: Phy14
 nFlds, nActive,       freq     &     phase        , nLev               
    1  |    1  |    -86400.000000         0.000000 |  24
 levels:   1   2   3   4   5   6   7   8   9  10  11  12  13  14  15  16  17  18  19  20  21  22  23  24
 diag# | name   |   ipt  |  iMate | kLev|   count |   mate.C|           
   565 |TRAC35  |   3393 |      0 |  24 |       0 |
------------------------------------------------------------------------
listId=  151 ; file name: Phy15
 nFlds, nActive,       freq     &     phase        , nLev               
    1  |    1  |    -86400.000000         0.000000 |  24
 levels:   1   2   3   4   5   6   7   8   9  10  11  12  13  14  15  16  17  18  19  20  21  22  23  24
 diag# | name   |   ipt  |  iMate | kLev|   count |   mate.C|           
   576 |TRAC36  |   3417 |      0 |  24 |       0 |
------------------------------------------------------------------------
listId=  152 ; file name: Phy16
 nFlds, nActive,       freq     &     phase        , nLev               
    1  |    1  |    -86400.000000         0.000000 |  24
 levels:   1   2   3   4   5   6   7   8   9  10  11  12  13  14  15  16  17  18  19  20  21  22  23  24
 diag# | name   |   ipt  |  iMate | kLev|   count |   mate.C|           
   587 |TRAC37  |   3441 |      0 |  24 |       0 |
------------------------------------------------------------------------
listId=  153 ; file name: Phy17
 nFlds, nActive,       freq     &     phase        , nLev               
    1  |    1  |    -86400.000000         0.000000 |  24
 levels:   1   2   3   4   5   6   7   8   9  10  11  12  13  14  15  16  17  18  19  20  21  22  23  24
 diag# | name   |   ipt  |  iMate | kLev|   count |   mate.C|           
   598 |TRAC38  |   3465 |      0 |  24 |       0 |
------------------------------------------------------------------------
listId=  154 ; file name: Phy18
 nFlds, nActive,       freq     &     phase        , nLev               
    1  |    1  |    -86400.000000         0.000000 |  24
 levels:   1   2   3   4   5   6   7   8   9  10  11  12  13  14  15  16  17  18  19  20  21  22  23  24
 diag# | name   |   ipt  |  iMate | kLev|   count |   mate.C|           
   609 |TRAC39  |   3489 |      0 |  24 |       0 |
------------------------------------------------------------------------
listId=  155 ; file name: Phy19
 nFlds, nActive,       freq     &     phase        , nLev               
    1  |    1  |    -86400.000000         0.000000 |  24
 levels:   1   2   3   4   5   6   7   8   9  10  11  12  13  14  15  16  17  18  19  20  21  22  23  24
 diag# | name   |   ipt  |  iMate | kLev|   count |   mate.C|           
   620 |TRAC40  |   3513 |      0 |  24 |       0 |
------------------------------------------------------------------------
listId=  156 ; file name: Phy20
 nFlds, nActive,       freq     &     phase        , nLev               
    1  |    1  |    -86400.000000         0.000000 |  24
 levels:   1   2   3   4   5   6   7   8   9  10  11  12  13  14  15  16  17  18  19  20  21  22  23  24
 diag# | name   |   ipt  |  iMate | kLev|   count |   mate.C|           
   631 |TRAC41  |   3537 |      0 |  24 |       0 |
------------------------------------------------------------------------
listId=  157 ; file name: Phy21
 nFlds, nActive,       freq     &     phase        , nLev               
    1  |    1  |    -86400.000000         0.000000 |  24
 levels:   1   2   3   4   5   6   7   8   9  10  11  12  13  14  15  16  17  18  19  20  21  22  23  24
 diag# | name   |   ipt  |  iMate | kLev|   count |   mate.C|           
   642 |TRAC42  |   3561 |      0 |  24 |       0 |
------------------------------------------------------------------------
listId=  158 ; file name: Phy22
 nFlds, nActive,       freq     &     phase        , nLev               
    1  |    1  |    -86400.000000         0.000000 |  24
 levels:   1   2   3   4   5   6   7   8   9  10  11  12  13  14  15  16  17  18  19  20  21  22  23  24
 diag# | name   |   ipt  |  iMate | kLev|   count |   mate.C|           
   653 |TRAC43  |   3585 |      0 |  24 |       0 |
------------------------------------------------------------------------
listId=  159 ; file name: Phy23
 nFlds, nActive,       freq     &     phase        , nLev               
    1  |    1  |    -86400.000000         0.000000 |  24
 levels:   1   2   3   4   5   6   7   8   9  10  11  12  13  14  15  16  17  18  19  20  21  22  23  24
 diag# | name   |   ipt  |  iMate | kLev|   count |   mate.C|           
   664 |TRAC44  |   3609 |      0 |  24 |       0 |
------------------------------------------------------------------------
listId=  160 ; file name: Phy24
 nFlds, nActive,       freq     &     phase        , nLev               
    1  |    1  |    -86400.000000         0.000000 |  24
 levels:   1   2   3   4   5   6   7   8   9  10  11  12  13  14  15  16  17  18  19  20  21  22  23  24
 diag# | name   |   ipt  |  iMate | kLev|   count |   mate.C|           
   675 |TRAC45  |   3633 |      0 |  24 |       0 |
------------------------------------------------------------------------
listId=  161 ; file name: Phy25
 nFlds, nActive,       freq     &     phase        , nLev               
    1  |    1  |    -86400.000000         0.000000 |  24
 levels:   1   2   3   4   5   6   7   8   9  10  11  12  13  14  15  16  17  18  19  20  21  22  23  24
 diag# | name   |   ipt  |  iMate | kLev|   count |   mate.C|           
   686 |TRAC46  |   3657 |      0 |  24 |       0 |
------------------------------------------------------------------------
listId=  162 ; file name: Phy26
 nFlds, nActive,       freq     &     phase        , nLev               
    1  |    1  |    -86400.000000         0.000000 |  24
 levels:   1   2   3   4   5   6   7   8   9  10  11  12  13  14  15  16  17  18  19  20  21  22  23  24
 diag# | name   |   ipt  |  iMate | kLev|   count |   mate.C|           
   697 |TRAC47  |   3681 |      0 |  24 |       0 |
------------------------------------------------------------------------
listId=  163 ; file name: Phy27
 nFlds, nActive,       freq     &     phase        , nLev               
    1  |    1  |    -86400.000000         0.000000 |  24
 levels:   1   2   3   4   5   6   7   8   9  10  11  12  13  14  15  16  17  18  19  20  21  22  23  24
 diag# | name   |   ipt  |  iMate | kLev|   count |   mate.C|           
   708 |TRAC48  |   3705 |      0 |  24 |       0 |
------------------------------------------------------------------------
listId=  164 ; file name: Phy28
 nFlds, nActive,       freq     &     phase        , nLev               
    1  |    1  |    -86400.000000         0.000000 |  24
 levels:   1   2   3   4   5   6   7   8   9  10  11  12  13  14  15  16  17  18  19  20  21  22  23  24
 diag# | name   |   ipt  |  iMate | kLev|   count |   mate.C|           
   719 |TRAC49  |   3729 |      0 |  24 |       0 |
------------------------------------------------------------------------
listId=  165 ; file name: Phy29
 nFlds, nActive,       freq     &     phase        , nLev               
    1  |    1  |    -86400.000000         0.000000 |  24
 levels:   1   2   3   4   5   6   7   8   9  10  11  12  13  14  15  16  17  18  19  20  21  22  23  24
 diag# | name   |   ipt  |  iMate | kLev|   count |   mate.C|           
   730 |TRAC50  |   3753 |      0 |  24 |       0 |
------------------------------------------------------------------------
listId=  166 ; file name: Phy30
 nFlds, nActive,       freq     &     phase        , nLev               
    1  |    1  |    -86400.000000         0.000000 |  24
 levels:   1   2   3   4   5   6   7   8   9  10  11  12  13  14  15  16  17  18  19  20  21  22  23  24
 diag# | name   |   ipt  |  iMate | kLev|   count |   mate.C|           
   741 |TRAC51  |   3777 |      0 |  24 |       0 |
------------------------------------------------------------------------
listId=  167 ; file name: Phy31
 nFlds, nActive,       freq     &     phase        , nLev               
    1  |    1  |    -86400.000000         0.000000 |  24
 levels:   1   2   3   4   5   6   7   8   9  10  11  12  13  14  15  16  17  18  19  20  21  22  23  24
 diag# | name   |   ipt  |  iMate | kLev|   count |   mate.C|           
   752 |TRAC52  |   3801 |      0 |  24 |       0 |
------------------------------------------------------------------------
listId=  168 ; file name: Phy32
 nFlds, nActive,       freq     &     phase        , nLev               
    1  |    1  |    -86400.000000         0.000000 |  24
 levels:   1   2   3   4   5   6   7   8   9  10  11  12  13  14  15  16  17  18  19  20  21  22  23  24
 diag# | name   |   ipt  |  iMate | kLev|   count |   mate.C|           
   763 |TRAC53  |   3825 |      0 |  24 |       0 |
------------------------------------------------------------------------
listId=  169 ; file name: Phy33
 nFlds, nActive,       freq     &     phase        , nLev               
    1  |    1  |    -86400.000000         0.000000 |  24
 levels:   1   2   3   4   5   6   7   8   9  10  11  12  13  14  15  16  17  18  19  20  21  22  23  24
 diag# | name   |   ipt  |  iMate | kLev|   count |   mate.C|           
   774 |TRAC54  |   3849 |      0 |  24 |       0 |
------------------------------------------------------------------------
listId=  170 ; file name: Phy34
 nFlds, nActive,       freq     &     phase        , nLev               
    1  |    1  |    -86400.000000         0.000000 |  24
 levels:   1   2   3   4   5   6   7   8   9  10  11  12  13  14  15  16  17  18  19  20  21  22  23  24
 diag# | name   |   ipt  |  iMate | kLev|   count |   mate.C|           
   785 |TRAC55  |   3873 |      0 |  24 |       0 |
------------------------------------------------------------------------
listId=  171 ; file name: Phy35
 nFlds, nActive,       freq     &     phase        , nLev               
    1  |    1  |    -86400.000000         0.000000 |  24
 levels:   1   2   3   4   5   6   7   8   9  10  11  12  13  14  15  16  17  18  19  20  21  22  23  24
 diag# | name   |   ipt  |  iMate | kLev|   count |   mate.C|           
   796 |TRAC56  |   3897 |      0 |  24 |       0 |
------------------------------------------------------------------------
listId=  172 ; file name: Phy36
 nFlds, nActive,       freq     &     phase        , nLev               
    1  |    1  |    -86400.000000         0.000000 |  24
 levels:   1   2   3   4   5   6   7   8   9  10  11  12  13  14  15  16  17  18  19  20  21  22  23  24
 diag# | name   |   ipt  |  iMate | kLev|   count |   mate.C|           
   807 |TRAC57  |   3921 |      0 |  24 |       0 |
------------------------------------------------------------------------
listId=  173 ; file name: Phy37
 nFlds, nActive,       freq     &     phase        , nLev               
    1  |    1  |    -86400.000000         0.000000 |  24
 levels:   1   2   3   4   5   6   7   8   9  10  11  12  13  14  15  16  17  18  19  20  21  22  23  24
 diag# | name   |   ipt  |  iMate | kLev|   count |   mate.C|           
   818 |TRAC58  |   3945 |      0 |  24 |       0 |
------------------------------------------------------------------------
listId=  174 ; file name: Phy38
 nFlds, nActive,       freq     &     phase        , nLev               
    1  |    1  |    -86400.000000         0.000000 |  24
 levels:   1   2   3   4   5   6   7   8   9  10  11  12  13  14  15  16  17  18  19  20  21  22  23  24
 diag# | name   |   ipt  |  iMate | kLev|   count |   mate.C|           
   829 |TRAC59  |   3969 |      0 |  24 |       0 |
------------------------------------------------------------------------
listId=  175 ; file name: Phy39
 nFlds, nActive,       freq     &     phase        , nLev               
    1  |    1  |    -86400.000000         0.000000 |  24
 levels:   1   2   3   4   5   6   7   8   9  10  11  12  13  14  15  16  17  18  19  20  21  22  23  24
 diag# | name   |   ipt  |  iMate | kLev|   count |   mate.C|           
   840 |TRAC60  |   3993 |      0 |  24 |       0 |
------------------------------------------------------------------------
listId=  176 ; file name: Phy40
 nFlds, nActive,       freq     &     phase        , nLev               
    1  |    1  |    -86400.000000         0.000000 |  24
 levels:   1   2   3   4   5   6   7   8   9  10  11  12  13  14  15  16  17  18  19  20  21  22  23  24
 diag# | name   |   ipt  |  iMate | kLev|   count |   mate.C|           
   851 |TRAC61  |   4017 |      0 |  24 |       0 |
------------------------------------------------------------------------
listId=  177 ; file name: Phy41
 nFlds, nActive,       freq     &     phase        , nLev               
    1  |    1  |    -86400.000000         0.000000 |  24
 levels:   1   2   3   4   5   6   7   8   9  10  11  12  13  14  15  16  17  18  19  20  21  22  23  24
 diag# | name   |   ipt  |  iMate | kLev|   count |   mate.C|           
   862 |TRAC62  |   4041 |      0 |  24 |       0 |
------------------------------------------------------------------------
listId=  178 ; file name: Phy42
 nFlds, nActive,       freq     &     phase        , nLev               
    1  |    1  |    -86400.000000         0.000000 |  24
 levels:   1   2   3   4   5   6   7   8   9  10  11  12  13  14  15  16  17  18  19  20  21  22  23  24
 diag# | name   |   ipt  |  iMate | kLev|   count |   mate.C|           
   873 |TRAC63  |   4065 |      0 |  24 |       0 |
------------------------------------------------------------------------
listId=  179 ; file name: Phy43
 nFlds, nActive,       freq     &     phase        , nLev               
    1  |    1  |    -86400.000000         0.000000 |  24
 levels:   1   2   3   4   5   6   7   8   9  10  11  12  13  14  15  16  17  18  19  20  21  22  23  24
 diag# | name   |   ipt  |  iMate | kLev|   count |   mate.C|           
   884 |TRAC64  |   4089 |      0 |  24 |       0 |
------------------------------------------------------------------------
listId=  180 ; file name: Phy44
 nFlds, nActive,       freq     &     phase        , nLev               
    1  |    1  |    -86400.000000         0.000000 |  24
 levels:   1   2   3   4   5   6   7   8   9  10  11  12  13  14  15  16  17  18  19  20  21  22  23  24
 diag# | name   |   ipt  |  iMate | kLev|   count |   mate.C|           
   895 |TRAC65  |   4113 |      0 |  24 |       0 |
------------------------------------------------------------------------
listId=  181 ; file name: Phy45
 nFlds, nActive,       freq     &     phase        , nLev               
    1  |    1  |    -86400.000000         0.000000 |  24
 levels:   1   2   3   4   5   6   7   8   9  10  11  12  13  14  15  16  17  18  19  20  21  22  23  24
 diag# | name   |   ipt  |  iMate | kLev|   count |   mate.C|           
   906 |TRAC66  |   4137 |      0 |  24 |       0 |
------------------------------------------------------------------------
listId=  182 ; file name: Phy46
 nFlds, nActive,       freq     &     phase        , nLev               
    1  |    1  |    -86400.000000         0.000000 |  24
 levels:   1   2   3   4   5   6   7   8   9  10  11  12  13  14  15  16  17  18  19  20  21  22  23  24
 diag# | name   |   ipt  |  iMate | kLev|   count |   mate.C|           
   917 |TRAC67  |   4161 |      0 |  24 |       0 |
------------------------------------------------------------------------
listId=  183 ; file name: Phy47
 nFlds, nActive,       freq     &     phase        , nLev               
    1  |    1  |    -86400.000000         0.000000 |  24
 levels:   1   2   3   4   5   6   7   8   9  10  11  12  13  14  15  16  17  18  19  20  21  22  23  24
 diag# | name   |   ipt  |  iMate | kLev|   count |   mate.C|           
   928 |TRAC68  |   4185 |      0 |  24 |       0 |
------------------------------------------------------------------------
listId=  184 ; file name: Phy48
 nFlds, nActive,       freq     &     phase        , nLev               
    1  |    1  |    -86400.000000         0.000000 |  24
 levels:   1   2   3   4   5   6   7   8   9  10  11  12  13  14  15  16  17  18  19  20  21  22  23  24
 diag# | name   |   ipt  |  iMate | kLev|   count |   mate.C|           
   939 |TRAC69  |   4209 |      0 |  24 |       0 |
------------------------------------------------------------------------
listId=  185 ; file name: Phy49
 nFlds, nActive,       freq     &     phase        , nLev               
    1  |    1  |    -86400.000000         0.000000 |  24
 levels:   1   2   3   4   5   6   7   8   9  10  11  12  13  14  15  16  17  18  19  20  21  22  23  24
 diag# | name   |   ipt  |  iMate | kLev|   count |   mate.C|           
   950 |TRAC70  |   4233 |      0 |  24 |       0 |
------------------------------------------------------------------------
listId=  186 ; file name: Phy50
 nFlds, nActive,       freq     &     phase        , nLev               
    1  |    1  |    -86400.000000         0.000000 |  24
 levels:   1   2   3   4   5   6   7   8   9  10  11  12  13  14  15  16  17  18  19  20  21  22  23  24
 diag# | name   |   ipt  |  iMate | kLev|   count |   mate.C|           
   961 |TRAC71  |   4257 |      0 |  24 |       0 |
------------------------------------------------------------------------
listId=  187 ; file name: Phy51
 nFlds, nActive,       freq     &     phase        , nLev               
    1  |    1  |    -86400.000000         0.000000 |  24
 levels:   1   2   3   4   5   6   7   8   9  10  11  12  13  14  15  16  17  18  19  20  21  22  23  24
 diag# | name   |   ipt  |  iMate | kLev|   count |   mate.C|           
   972 |TRAC72  |   4281 |      0 |  24 |       0 |
------------------------------------------------------------------------
listId=  188 ; file name: Phy52
 nFlds, nActive,       freq     &     phase        , nLev               
    1  |    1  |    -86400.000000         0.000000 |  24
 levels:   1   2   3   4   5   6   7   8   9  10  11  12  13  14  15  16  17  18  19  20  21  22  23  24
 diag# | name   |   ipt  |  iMate | kLev|   count |   mate.C|           
   983 |TRAC73  |   4305 |      0 |  24 |       0 |
------------------------------------------------------------------------
listId=  189 ; file name: Phy53
 nFlds, nActive,       freq     &     phase        , nLev               
    1  |    1  |    -86400.000000         0.000000 |  24
 levels:   1   2   3   4   5   6   7   8   9  10  11  12  13  14  15  16  17  18  19  20  21  22  23  24
 diag# | name   |   ipt  |  iMate | kLev|   count |   mate.C|           
   994 |TRAC74  |   4329 |      0 |  24 |       0 |
------------------------------------------------------------------------
listId=  190 ; file name: Phy54
 nFlds, nActive,       freq     &     phase        , nLev               
    1  |    1  |    -86400.000000         0.000000 |  24
 levels:   1   2   3   4   5   6   7   8   9  10  11  12  13  14  15  16  17  18  19  20  21  22  23  24
 diag# | name   |   ipt  |  iMate | kLev|   count |   mate.C|           
  1005 |TRAC75  |   4353 |      0 |  24 |       0 |
------------------------------------------------------------------------
listId=  191 ; file name: Phy55
 nFlds, nActive,       freq     &     phase        , nLev               
    1  |    1  |    -86400.000000         0.000000 |  24
 levels:   1   2   3   4   5   6   7   8   9  10  11  12  13  14  15  16  17  18  19  20  21  22  23  24
 diag# | name   |   ipt  |  iMate | kLev|   count |   mate.C|           
  1016 |TRAC76  |   4377 |      0 |  24 |       0 |
------------------------------------------------------------------------
listId=  192 ; file name: Phy56
 nFlds, nActive,       freq     &     phase        , nLev               
    1  |    1  |    -86400.000000         0.000000 |  24
 levels:   1   2   3   4   5   6   7   8   9  10  11  12  13  14  15  16  17  18  19  20  21  22  23  24
 diag# | name   |   ipt  |  iMate | kLev|   count |   mate.C|           
  1027 |TRAC77  |   4401 |      0 |  24 |       0 |
------------------------------------------------------------------------
listId=  193 ; file name: Phy57
 nFlds, nActive,       freq     &     phase        , nLev               
    1  |    1  |    -86400.000000         0.000000 |  24
 levels:   1   2   3   4   5   6   7   8   9  10  11  12  13  14  15  16  17  18  19  20  21  22  23  24
 diag# | name   |   ipt  |  iMate | kLev|   count |   mate.C|           
  1038 |TRAC78  |   4425 |      0 |  24 |       0 |
------------------------------------------------------------------------
listId=  194 ; file name: Phy58
 nFlds, nActive,       freq     &     phase        , nLev               
    1  |    1  |    -86400.000000         0.000000 |  24
 levels:   1   2   3   4   5   6   7   8   9  10  11  12  13  14  15  16  17  18  19  20  21  22  23  24
 diag# | name   |   ipt  |  iMate | kLev|   count |   mate.C|           
  1049 |TRAC79  |   4449 |      0 |  24 |       0 |
------------------------------------------------------------------------
listId=  195 ; file name: Phy59
 nFlds, nActive,       freq     &     phase        , nLev               
    1  |    1  |    -86400.000000         0.000000 |  24
 levels:   1   2   3   4   5   6   7   8   9  10  11  12  13  14  15  16  17  18  19  20  21  22  23  24
 diag# | name   |   ipt  |  iMate | kLev|   count |   mate.C|           
  1060 |TRAC80  |   4473 |      0 |  24 |       0 |
------------------------------------------------------------------------
listId=  196 ; file name: Phy60
 nFlds, nActive,       freq     &     phase        , nLev               
    1  |    1  |    -86400.000000         0.000000 |  24
 levels:   1   2   3   4   5   6   7   8   9  10  11  12  13  14  15  16  17  18  19  20  21  22  23  24
 diag# | name   |   ipt  |  iMate | kLev|   count |   mate.C|           
  1071 |TRAC81  |   4497 |      0 |  24 |       0 |
------------------------------------------------------------------------
listId=  197 ; file name: Phy61
 nFlds, nActive,       freq     &     phase        , nLev               
    1  |    1  |    -86400.000000         0.000000 |  24
 levels:   1   2   3   4   5   6   7   8   9  10  11  12  13  14  15  16  17  18  19  20  21  22  23  24
 diag# | name   |   ipt  |  iMate | kLev|   count |   mate.C|           
  1082 |TRAC82  |   4521 |      0 |  24 |       0 |
------------------------------------------------------------------------
listId=  198 ; file name: Phy62
 nFlds, nActive,       freq     &     phase        , nLev               
    1  |    1  |    -86400.000000         0.000000 |  24
 levels:   1   2   3   4   5   6   7   8   9  10  11  12  13  14  15  16  17  18  19  20  21  22  23  24
 diag# | name   |   ipt  |  iMate | kLev|   count |   mate.C|           
  1093 |TRAC83  |   4545 |      0 |  24 |       0 |
------------------------------------------------------------------------
listId=  199 ; file name: Phy63
 nFlds, nActive,       freq     &     phase        , nLev               
    1  |    1  |    -86400.000000         0.000000 |  24
 levels:   1   2   3   4   5   6   7   8   9  10  11  12  13  14  15  16  17  18  19  20  21  22  23  24
 diag# | name   |   ipt  |  iMate | kLev|   count |   mate.C|           
  1104 |TRAC84  |   4569 |      0 |  24 |       0 |
------------------------------------------------------------------------
listId=  200 ; file name: Phy64
 nFlds, nActive,       freq     &     phase        , nLev               
    1  |    1  |    -86400.000000         0.000000 |  24
 levels:   1   2   3   4   5   6   7   8   9  10  11  12  13  14  15  16  17  18  19  20  21  22  23  24
 diag# | name   |   ipt  |  iMate | kLev|   count |   mate.C|           
  1115 |TRAC85  |   4593 |      0 |  24 |       0 |
------------------------------------------------------------------------
listId=  201 ; file name: Phy65
 nFlds, nActive,       freq     &     phase        , nLev               
    1  |    1  |    -86400.000000         0.000000 |  24
 levels:   1   2   3   4   5   6   7   8   9  10  11  12  13  14  15  16  17  18  19  20  21  22  23  24
 diag# | name   |   ipt  |  iMate | kLev|   count |   mate.C|           
  1126 |TRAC86  |   4617 |      0 |  24 |       0 |
------------------------------------------------------------------------
listId=  202 ; file name: Phy66
 nFlds, nActive,       freq     &     phase        , nLev               
    1  |    1  |    -86400.000000         0.000000 |  24
 levels:   1   2   3   4   5   6   7   8   9  10  11  12  13  14  15  16  17  18  19  20  21  22  23  24
 diag# | name   |   ipt  |  iMate | kLev|   count |   mate.C|           
  1137 |TRAC87  |   4641 |      0 |  24 |       0 |
------------------------------------------------------------------------
listId=  203 ; file name: Phy67
 nFlds, nActive,       freq     &     phase        , nLev               
    1  |    1  |    -86400.000000         0.000000 |  24
 levels:   1   2   3   4   5   6   7   8   9  10  11  12  13  14  15  16  17  18  19  20  21  22  23  24
 diag# | name   |   ipt  |  iMate | kLev|   count |   mate.C|           
  1148 |TRAC88  |   4665 |      0 |  24 |       0 |
------------------------------------------------------------------------
listId=  204 ; file name: Phy68
 nFlds, nActive,       freq     &     phase        , nLev               
    1  |    1  |    -86400.000000         0.000000 |  24
 levels:   1   2   3   4   5   6   7   8   9  10  11  12  13  14  15  16  17  18  19  20  21  22  23  24
 diag# | name   |   ipt  |  iMate | kLev|   count |   mate.C|           
  1159 |TRAC89  |   4689 |      0 |  24 |       0 |
------------------------------------------------------------------------
listId=  205 ; file name: Phy69
 nFlds, nActive,       freq     &     phase        , nLev               
    1  |    1  |    -86400.000000         0.000000 |  24
 levels:   1   2   3   4   5   6   7   8   9  10  11  12  13  14  15  16  17  18  19  20  21  22  23  24
 diag# | name   |   ipt  |  iMate | kLev|   count |   mate.C|           
  1170 |TRAC90  |   4713 |      0 |  24 |       0 |
------------------------------------------------------------------------
listId=  206 ; file name: Phy70
 nFlds, nActive,       freq     &     phase        , nLev               
    1  |    1  |    -86400.000000         0.000000 |  24
 levels:   1   2   3   4   5   6   7   8   9  10  11  12  13  14  15  16  17  18  19  20  21  22  23  24
 diag# | name   |   ipt  |  iMate | kLev|   count |   mate.C|           
  1181 |TRAC91  |   4737 |      0 |  24 |       0 |
------------------------------------------------------------------------
listId=  207 ; file name: Phy71
 nFlds, nActive,       freq     &     phase        , nLev               
    1  |    1  |    -86400.000000         0.000000 |  24
 levels:   1   2   3   4   5   6   7   8   9  10  11  12  13  14  15  16  17  18  19  20  21  22  23  24
 diag# | name   |   ipt  |  iMate | kLev|   count |   mate.C|           
  1192 |TRAC92  |   4761 |      0 |  24 |       0 |
------------------------------------------------------------------------
listId=  208 ; file name: Phy72
 nFlds, nActive,       freq     &     phase        , nLev               
    1  |    1  |    -86400.000000         0.000000 |  24
 levels:   1   2   3   4   5   6   7   8   9  10  11  12  13  14  15  16  17  18  19  20  21  22  23  24
 diag# | name   |   ipt  |  iMate | kLev|   count |   mate.C|           
  1203 |TRAC93  |   4785 |      0 |  24 |       0 |
------------------------------------------------------------------------
listId=  209 ; file name: Phy73
 nFlds, nActive,       freq     &     phase        , nLev               
    1  |    1  |    -86400.000000         0.000000 |  24
 levels:   1   2   3   4   5   6   7   8   9  10  11  12  13  14  15  16  17  18  19  20  21  22  23  24
 diag# | name   |   ipt  |  iMate | kLev|   count |   mate.C|           
  1214 |TRAC94  |   4809 |      0 |  24 |       0 |
------------------------------------------------------------------------
listId=  210 ; file name: Phy74
 nFlds, nActive,       freq     &     phase        , nLev               
    1  |    1  |    -86400.000000         0.000000 |  24
 levels:   1   2   3   4   5   6   7   8   9  10  11  12  13  14  15  16  17  18  19  20  21  22  23  24
 diag# | name   |   ipt  |  iMate | kLev|   count |   mate.C|           
  1225 |TRAC95  |   4833 |      0 |  24 |       0 |
------------------------------------------------------------------------
listId=  211 ; file name: Phy75
 nFlds, nActive,       freq     &     phase        , nLev               
    1  |    1  |    -86400.000000         0.000000 |  24
 levels:   1   2   3   4   5   6   7   8   9  10  11  12  13  14  15  16  17  18  19  20  21  22  23  24
 diag# | name   |   ipt  |  iMate | kLev|   count |   mate.C|           
  1236 |TRAC96  |   4857 |      0 |  24 |       0 |
------------------------------------------------------------------------
listId=  212 ; file name: Phy76
 nFlds, nActive,       freq     &     phase        , nLev               
    1  |    1  |    -86400.000000         0.000000 |  24
 levels:   1   2   3   4   5   6   7   8   9  10  11  12  13  14  15  16  17  18  19  20  21  22  23  24
 diag# | name   |   ipt  |  iMate | kLev|   count |   mate.C|           
  1247 |TRAC97  |   4881 |      0 |  24 |       0 |
------------------------------------------------------------------------
listId=  213 ; file name: Phy77
 nFlds, nActive,       freq     &     phase        , nLev               
    1  |    1  |    -86400.000000         0.000000 |  24
 levels:   1   2   3   4   5   6   7   8   9  10  11  12  13  14  15  16  17  18  19  20  21  22  23  24
 diag# | name   |   ipt  |  iMate | kLev|   count |   mate.C|           
  1258 |TRAC98  |   4905 |      0 |  24 |       0 |
------------------------------------------------------------------------
listId=  214 ; file name: Phy78
 nFlds, nActive,       freq     &     phase        , nLev               
    1  |    1  |    -86400.000000         0.000000 |  24
 levels:   1   2   3   4   5   6   7   8   9  10  11  12  13  14  15  16  17  18  19  20  21  22  23  24
 diag# | name   |   ipt  |  iMate | kLev|   count |   mate.C|           
  1269 |TRAC99  |   4929 |      0 |  24 |       0 |
------------------------------------------------------------------------
Global & Regional Statistics diagnostics: Number of lists:    11
------------------------------------------------------------------------
listId=   1 ; file name: SIqsw_stat
 nFlds, nActive,       freq     &     phase        |                    
    1  |    1  |      1200.000000         0.000000 |
 Regions:   0
 diag# | name   |   ipt  |  iMate |    Volume   |   mate-Vol. |         
  1386 |SIqsw   |      1 |      0 | 0.00000E+00 |
------------------------------------------------------------------------
listId=   2 ; file name: oceQsw_stat
 nFlds, nActive,       freq     &     phase        |                    
    1  |    1  |      1200.000000         0.000000 |
 Regions:   0
 diag# | name   |   ipt  |  iMate |    Volume   |   mate-Vol. |         
    81 |oceQsw  |      2 |      0 | 0.00000E+00 |
------------------------------------------------------------------------
listId=   3 ; file name: PAR_stat
 nFlds, nActive,       freq     &     phase        |                    
    1  |    1  |      1200.000000         0.000000 |
 Regions:   0
 diag# | name   |   ipt  |  iMate |    Volume   |   mate-Vol. |         
  1280 |PAR     |      3 |      0 | 0.00000E+00 |
------------------------------------------------------------------------
listId=   4 ; file name: EXFswnet_stat
 nFlds, nActive,       freq     &     phase        |                    
    1  |    1  |      1200.000000         0.000000 |
 Regions:   0
 diag# | name   |   ipt  |  iMate |    Volume   |   mate-Vol. |         
   162 |EXFswnet|     27 |      0 | 0.00000E+00 |
------------------------------------------------------------------------
listId=   5 ; file name: EXFswdn_stat
 nFlds, nActive,       freq     &     phase        |                    
    1  |    1  |      1200.000000         0.000000 |
 Regions:   0
 diag# | name   |   ipt  |  iMate |    Volume   |   mate-Vol. |         
   164 |EXFswdn |     28 |      0 | 0.00000E+00 |
------------------------------------------------------------------------
listId=   6 ; file name: THETA_stat
 nFlds, nActive,       freq     &     phase        |                    
    1  |    1  |      1200.000000         0.000000 |
 Regions:   0
 diag# | name   |   ipt  |  iMate |    Volume   |   mate-Vol. |         
    26 |THETA   |     29 |      0 | 0.00000E+00 |
------------------------------------------------------------------------
listId=   7 ; file name: SALTanom_stat
 nFlds, nActive,       freq     &     phase        |                    
    1  |    1  |      1200.000000         0.000000 |
 Regions:   0
 diag# | name   |   ipt  |  iMate |    Volume   |   mate-Vol. |         
    29 |SALTanom|     53 |      0 | 0.00000E+00 |
------------------------------------------------------------------------
listId=   8 ; file name: PP_stat
 nFlds, nActive,       freq     &     phase        |                    
    1  |    1  |      1200.000000         0.000000 |
 Regions:   0
 diag# | name   |   ipt  |  iMate |    Volume   |   mate-Vol. |         
  1281 |PP      |     77 |      0 | 0.00000E+00 |
------------------------------------------------------------------------
listId=   9 ; file name: Phy58_stat
 nFlds, nActive,       freq     &     phase        |                    
    1  |    1  |      1200.000000         0.000000 |
 Regions:   0
 diag# | name   |   ipt  |  iMate |    Volume   |   mate-Vol. |         
  1049 |TRAC79  |    101 |      0 | 0.00000E+00 |
------------------------------------------------------------------------
listId=  10 ; file name: ETAN_stat
 nFlds, nActive,       freq     &     phase        |                    
    1  |    1  |      1200.000000         0.000000 |
 Regions:   0
 diag# | name   |   ipt  |  iMate |    Volume   |   mate-Vol. |         
    23 |ETAN    |    125 |      0 | 0.00000E+00 |
------------------------------------------------------------------------
listId=  11 ; file name: FeT_stat
 nFlds, nActive,       freq     &     phase        |                    
    1  |    1  |      1200.000000         0.000000 |
 Regions:   0
 diag# | name   |   ipt  |  iMate |    Volume   |   mate-Vol. |         
   213 |TRAC03  |    126 |      0 | 0.00000E+00 |
------------------------------------------------------------------------
(PID.TID 0000.0001)  MDS_READ_META: opening file: pickup_seaice.0000188388.meta
(PID.TID 0000.0001)  nRecords =   7 ; filePrec =  64 ; fileIter =    188388
(PID.TID 0000.0001)     nDims =   3 , dims:
(PID.TID 0000.0001)    1:  76   1  76
(PID.TID 0000.0001)    2:  72   1  72
(PID.TID 0000.0001)    3:   3   1   3
(PID.TID 0000.0001)     nFlds =   0 , nFl3D =   0 , fields:
(PID.TID 0000.0001)   nTimRec =   0 , timeList:
(PID.TID 0000.0001)  MDS_READ_FIELD: opening global file: pickup_seaice.0000188388.data
(PID.TID 0000.0001)  MDS_READ_FIELD: opening global file: pickup_seaice.0000188388.data
(PID.TID 0000.0001)  MDS_READ_FIELD: opening global file: pickup_seaice.0000188388.data
(PID.TID 0000.0001)  MDS_READ_FIELD: opening global file: pickup_seaice.0000188388.data
(PID.TID 0000.0001)  MDS_READ_FIELD: opening global file: pickup_seaice.0000188388.data
(PID.TID 0000.0001)  MDS_READ_FIELD: opening global file: pickup_seaice.0000188388.data
(PID.TID 0000.0001) READ_MFLDS_CHECK: - normal end ; reset MFLDS file-name: pickup_seaice.0000188388
(PID.TID 0000.0001)  MDS_READ_META: opening file: pickup_ptracers.0000188388.meta
(PID.TID 0000.0001)  nRecords =  99 ; filePrec =  64 ; fileIter =    188388
(PID.TID 0000.0001)     nDims =   3 , dims:
(PID.TID 0000.0001)    1:  76   1  76
(PID.TID 0000.0001)    2:  72   1  72
(PID.TID 0000.0001)    3:  24   1  24
(PID.TID 0000.0001)     nFlds =  99 , nFl3D =   0 , fields:
(PID.TID 0000.0001)  >pTr01   < >pTr02   < >pTr03   < >pTr04   < >pTr05   < >pTr06   < >pTr07   < >pTr08   < >pTr09   < >pTr10   < >pTr11   < >pTr12   < >pTr13   < >pTr14   < >pTr15   < >pTr16   < >pTr17   < >pTr18   < >pTr19   < >pTr20   <
(PID.TID 0000.0001)  >pTr21   < >pTr22   < >pTr23   < >pTr24   < >pTr25   < >pTr26   < >pTr27   < >pTr28   < >pTr29   < >pTr30   < >pTr31   < >pTr32   < >pTr33   < >pTr34   < >pTr35   < >pTr36   < >pTr37   < >pTr38   < >pTr39   < >pTr40   <
(PID.TID 0000.0001)  >pTr41   < >pTr42   < >pTr43   < >pTr44   < >pTr45   < >pTr46   < >pTr47   < >pTr48   < >pTr49   < >pTr50   < >pTr51   < >pTr52   < >pTr53   < >pTr54   < >pTr55   < >pTr56   < >pTr57   < >pTr58   < >pTr59   < >pTr60   <
(PID.TID 0000.0001)  >pTr61   < >pTr62   < >pTr63   < >pTr64   < >pTr65   < >pTr66   < >pTr67   < >pTr68   < >pTr69   < >pTr70   < >pTr71   < >pTr72   < >pTr73   < >pTr74   < >pTr75   < >pTr76   < >pTr77   < >pTr78   < >pTr79   < >pTr80   <
(PID.TID 0000.0001)  >pTr81   < >pTr82   < >pTr83   < >pTr84   < >pTr85   < >pTr86   < >pTr87   < >pTr88   < >pTr89   < >pTr90   < >pTr91   < >pTr92   < >pTr93   < >pTr94   < >pTr95   < >pTr96   < >pTr97   < >pTr98   < >pTr99   <
(PID.TID 0000.0001)   nTimRec =   1 , timeList:
(PID.TID 0000.0001)   2.260656000000E+08
(PID.TID 0000.0001) READ_MFLDS_3D_RL: read field: "pTr01   ", #   1 in fldList, rec=   1
(PID.TID 0000.0001)  MDS_READ_FIELD: opening global file: pickup_ptracers.0000188388.data
(PID.TID 0000.0001) READ_MFLDS_3D_RL: read field: "pTr02   ", #   2 in fldList, rec=   2
(PID.TID 0000.0001)  MDS_READ_FIELD: opening global file: pickup_ptracers.0000188388.data
(PID.TID 0000.0001) READ_MFLDS_3D_RL: read field: "pTr03   ", #   3 in fldList, rec=   3
(PID.TID 0000.0001)  MDS_READ_FIELD: opening global file: pickup_ptracers.0000188388.data
(PID.TID 0000.0001) READ_MFLDS_3D_RL: read field: "pTr04   ", #   4 in fldList, rec=   4
(PID.TID 0000.0001)  MDS_READ_FIELD: opening global file: pickup_ptracers.0000188388.data
(PID.TID 0000.0001) READ_MFLDS_3D_RL: read field: "pTr05   ", #   5 in fldList, rec=   5
(PID.TID 0000.0001)  MDS_READ_FIELD: opening global file: pickup_ptracers.0000188388.data
(PID.TID 0000.0001) READ_MFLDS_3D_RL: read field: "pTr06   ", #   6 in fldList, rec=   6
(PID.TID 0000.0001)  MDS_READ_FIELD: opening global file: pickup_ptracers.0000188388.data
(PID.TID 0000.0001) READ_MFLDS_3D_RL: read field: "pTr07   ", #   7 in fldList, rec=   7
(PID.TID 0000.0001)  MDS_READ_FIELD: opening global file: pickup_ptracers.0000188388.data
(PID.TID 0000.0001) READ_MFLDS_3D_RL: read field: "pTr08   ", #   8 in fldList, rec=   8
(PID.TID 0000.0001)  MDS_READ_FIELD: opening global file: pickup_ptracers.0000188388.data
(PID.TID 0000.0001) READ_MFLDS_3D_RL: read field: "pTr09   ", #   9 in fldList, rec=   9
(PID.TID 0000.0001)  MDS_READ_FIELD: opening global file: pickup_ptracers.0000188388.data
(PID.TID 0000.0001) READ_MFLDS_3D_RL: read field: "pTr10   ", #  10 in fldList, rec=  10
(PID.TID 0000.0001)  MDS_READ_FIELD: opening global file: pickup_ptracers.0000188388.data
(PID.TID 0000.0001) READ_MFLDS_3D_RL: read field: "pTr11   ", #  11 in fldList, rec=  11
(PID.TID 0000.0001)  MDS_READ_FIELD: opening global file: pickup_ptracers.0000188388.data
(PID.TID 0000.0001) READ_MFLDS_3D_RL: read field: "pTr12   ", #  12 in fldList, rec=  12
(PID.TID 0000.0001)  MDS_READ_FIELD: opening global file: pickup_ptracers.0000188388.data
(PID.TID 0000.0001) READ_MFLDS_3D_RL: read field: "pTr13   ", #  13 in fldList, rec=  13
(PID.TID 0000.0001)  MDS_READ_FIELD: opening global file: pickup_ptracers.0000188388.data
(PID.TID 0000.0001) READ_MFLDS_3D_RL: read field: "pTr14   ", #  14 in fldList, rec=  14
(PID.TID 0000.0001)  MDS_READ_FIELD: opening global file: pickup_ptracers.0000188388.data
(PID.TID 0000.0001) READ_MFLDS_3D_RL: read field: "pTr15   ", #  15 in fldList, rec=  15
(PID.TID 0000.0001)  MDS_READ_FIELD: opening global file: pickup_ptracers.0000188388.data
(PID.TID 0000.0001) READ_MFLDS_3D_RL: read field: "pTr16   ", #  16 in fldList, rec=  16
(PID.TID 0000.0001)  MDS_READ_FIELD: opening global file: pickup_ptracers.0000188388.data
(PID.TID 0000.0001) READ_MFLDS_3D_RL: read field: "pTr17   ", #  17 in fldList, rec=  17
(PID.TID 0000.0001)  MDS_READ_FIELD: opening global file: pickup_ptracers.0000188388.data
(PID.TID 0000.0001) READ_MFLDS_3D_RL: read field: "pTr18   ", #  18 in fldList, rec=  18
(PID.TID 0000.0001)  MDS_READ_FIELD: opening global file: pickup_ptracers.0000188388.data
(PID.TID 0000.0001) READ_MFLDS_3D_RL: read field: "pTr19   ", #  19 in fldList, rec=  19
(PID.TID 0000.0001)  MDS_READ_FIELD: opening global file: pickup_ptracers.0000188388.data
(PID.TID 0000.0001) READ_MFLDS_3D_RL: read field: "pTr20   ", #  20 in fldList, rec=  20
(PID.TID 0000.0001)  MDS_READ_FIELD: opening global file: pickup_ptracers.0000188388.data
(PID.TID 0000.0001) READ_MFLDS_3D_RL: read field: "pTr21   ", #  21 in fldList, rec=  21
(PID.TID 0000.0001)  MDS_READ_FIELD: opening global file: pickup_ptracers.0000188388.data
(PID.TID 0000.0001) READ_MFLDS_3D_RL: read field: "pTr22   ", #  22 in fldList, rec=  22
(PID.TID 0000.0001)  MDS_READ_FIELD: opening global file: pickup_ptracers.0000188388.data
(PID.TID 0000.0001) READ_MFLDS_3D_RL: read field: "pTr23   ", #  23 in fldList, rec=  23
(PID.TID 0000.0001)  MDS_READ_FIELD: opening global file: pickup_ptracers.0000188388.data
(PID.TID 0000.0001) READ_MFLDS_3D_RL: read field: "pTr24   ", #  24 in fldList, rec=  24
(PID.TID 0000.0001)  MDS_READ_FIELD: opening global file: pickup_ptracers.0000188388.data
(PID.TID 0000.0001) READ_MFLDS_3D_RL: read field: "pTr25   ", #  25 in fldList, rec=  25
(PID.TID 0000.0001)  MDS_READ_FIELD: opening global file: pickup_ptracers.0000188388.data
(PID.TID 0000.0001) READ_MFLDS_3D_RL: read field: "pTr26   ", #  26 in fldList, rec=  26
(PID.TID 0000.0001)  MDS_READ_FIELD: opening global file: pickup_ptracers.0000188388.data
(PID.TID 0000.0001) READ_MFLDS_3D_RL: read field: "pTr27   ", #  27 in fldList, rec=  27
(PID.TID 0000.0001)  MDS_READ_FIELD: opening global file: pickup_ptracers.0000188388.data
(PID.TID 0000.0001) READ_MFLDS_3D_RL: read field: "pTr28   ", #  28 in fldList, rec=  28
(PID.TID 0000.0001)  MDS_READ_FIELD: opening global file: pickup_ptracers.0000188388.data
(PID.TID 0000.0001) READ_MFLDS_3D_RL: read field: "pTr29   ", #  29 in fldList, rec=  29
(PID.TID 0000.0001)  MDS_READ_FIELD: opening global file: pickup_ptracers.0000188388.data
(PID.TID 0000.0001) READ_MFLDS_3D_RL: read field: "pTr30   ", #  30 in fldList, rec=  30
(PID.TID 0000.0001)  MDS_READ_FIELD: opening global file: pickup_ptracers.0000188388.data
(PID.TID 0000.0001) READ_MFLDS_3D_RL: read field: "pTr31   ", #  31 in fldList, rec=  31
(PID.TID 0000.0001)  MDS_READ_FIELD: opening global file: pickup_ptracers.0000188388.data
(PID.TID 0000.0001) READ_MFLDS_3D_RL: read field: "pTr32   ", #  32 in fldList, rec=  32
(PID.TID 0000.0001)  MDS_READ_FIELD: opening global file: pickup_ptracers.0000188388.data
(PID.TID 0000.0001) READ_MFLDS_3D_RL: read field: "pTr33   ", #  33 in fldList, rec=  33
(PID.TID 0000.0001)  MDS_READ_FIELD: opening global file: pickup_ptracers.0000188388.data
(PID.TID 0000.0001) READ_MFLDS_3D_RL: read field: "pTr34   ", #  34 in fldList, rec=  34
(PID.TID 0000.0001)  MDS_READ_FIELD: opening global file: pickup_ptracers.0000188388.data
(PID.TID 0000.0001) READ_MFLDS_3D_RL: read field: "pTr35   ", #  35 in fldList, rec=  35
(PID.TID 0000.0001)  MDS_READ_FIELD: opening global file: pickup_ptracers.0000188388.data
(PID.TID 0000.0001) READ_MFLDS_3D_RL: read field: "pTr36   ", #  36 in fldList, rec=  36
(PID.TID 0000.0001)  MDS_READ_FIELD: opening global file: pickup_ptracers.0000188388.data
(PID.TID 0000.0001) READ_MFLDS_3D_RL: read field: "pTr37   ", #  37 in fldList, rec=  37
(PID.TID 0000.0001)  MDS_READ_FIELD: opening global file: pickup_ptracers.0000188388.data
(PID.TID 0000.0001) READ_MFLDS_3D_RL: read field: "pTr38   ", #  38 in fldList, rec=  38
(PID.TID 0000.0001)  MDS_READ_FIELD: opening global file: pickup_ptracers.0000188388.data
(PID.TID 0000.0001) READ_MFLDS_3D_RL: read field: "pTr39   ", #  39 in fldList, rec=  39
(PID.TID 0000.0001)  MDS_READ_FIELD: opening global file: pickup_ptracers.0000188388.data
(PID.TID 0000.0001) READ_MFLDS_3D_RL: read field: "pTr40   ", #  40 in fldList, rec=  40
(PID.TID 0000.0001)  MDS_READ_FIELD: opening global file: pickup_ptracers.0000188388.data
(PID.TID 0000.0001) READ_MFLDS_3D_RL: read field: "pTr41   ", #  41 in fldList, rec=  41
(PID.TID 0000.0001)  MDS_READ_FIELD: opening global file: pickup_ptracers.0000188388.data
(PID.TID 0000.0001) READ_MFLDS_3D_RL: read field: "pTr42   ", #  42 in fldList, rec=  42
(PID.TID 0000.0001)  MDS_READ_FIELD: opening global file: pickup_ptracers.0000188388.data
(PID.TID 0000.0001) READ_MFLDS_3D_RL: read field: "pTr43   ", #  43 in fldList, rec=  43
(PID.TID 0000.0001)  MDS_READ_FIELD: opening global file: pickup_ptracers.0000188388.data
(PID.TID 0000.0001) READ_MFLDS_3D_RL: read field: "pTr44   ", #  44 in fldList, rec=  44
(PID.TID 0000.0001)  MDS_READ_FIELD: opening global file: pickup_ptracers.0000188388.data
(PID.TID 0000.0001) READ_MFLDS_3D_RL: read field: "pTr45   ", #  45 in fldList, rec=  45
(PID.TID 0000.0001)  MDS_READ_FIELD: opening global file: pickup_ptracers.0000188388.data
(PID.TID 0000.0001) READ_MFLDS_3D_RL: read field: "pTr46   ", #  46 in fldList, rec=  46
(PID.TID 0000.0001)  MDS_READ_FIELD: opening global file: pickup_ptracers.0000188388.data
(PID.TID 0000.0001) READ_MFLDS_3D_RL: read field: "pTr47   ", #  47 in fldList, rec=  47
(PID.TID 0000.0001)  MDS_READ_FIELD: opening global file: pickup_ptracers.0000188388.data
(PID.TID 0000.0001) READ_MFLDS_3D_RL: read field: "pTr48   ", #  48 in fldList, rec=  48
(PID.TID 0000.0001)  MDS_READ_FIELD: opening global file: pickup_ptracers.0000188388.data
(PID.TID 0000.0001) READ_MFLDS_3D_RL: read field: "pTr49   ", #  49 in fldList, rec=  49
(PID.TID 0000.0001)  MDS_READ_FIELD: opening global file: pickup_ptracers.0000188388.data
(PID.TID 0000.0001) READ_MFLDS_3D_RL: read field: "pTr50   ", #  50 in fldList, rec=  50
(PID.TID 0000.0001)  MDS_READ_FIELD: opening global file: pickup_ptracers.0000188388.data
(PID.TID 0000.0001) READ_MFLDS_3D_RL: read field: "pTr51   ", #  51 in fldList, rec=  51
(PID.TID 0000.0001)  MDS_READ_FIELD: opening global file: pickup_ptracers.0000188388.data
(PID.TID 0000.0001) READ_MFLDS_3D_RL: read field: "pTr52   ", #  52 in fldList, rec=  52
(PID.TID 0000.0001)  MDS_READ_FIELD: opening global file: pickup_ptracers.0000188388.data
(PID.TID 0000.0001) READ_MFLDS_3D_RL: read field: "pTr53   ", #  53 in fldList, rec=  53
(PID.TID 0000.0001)  MDS_READ_FIELD: opening global file: pickup_ptracers.0000188388.data
(PID.TID 0000.0001) READ_MFLDS_3D_RL: read field: "pTr54   ", #  54 in fldList, rec=  54
(PID.TID 0000.0001)  MDS_READ_FIELD: opening global file: pickup_ptracers.0000188388.data
(PID.TID 0000.0001) READ_MFLDS_3D_RL: read field: "pTr55   ", #  55 in fldList, rec=  55
(PID.TID 0000.0001)  MDS_READ_FIELD: opening global file: pickup_ptracers.0000188388.data
(PID.TID 0000.0001) READ_MFLDS_3D_RL: read field: "pTr56   ", #  56 in fldList, rec=  56
(PID.TID 0000.0001)  MDS_READ_FIELD: opening global file: pickup_ptracers.0000188388.data
(PID.TID 0000.0001) READ_MFLDS_3D_RL: read field: "pTr57   ", #  57 in fldList, rec=  57
(PID.TID 0000.0001)  MDS_READ_FIELD: opening global file: pickup_ptracers.0000188388.data
(PID.TID 0000.0001) READ_MFLDS_3D_RL: read field: "pTr58   ", #  58 in fldList, rec=  58
(PID.TID 0000.0001)  MDS_READ_FIELD: opening global file: pickup_ptracers.0000188388.data
(PID.TID 0000.0001) READ_MFLDS_3D_RL: read field: "pTr59   ", #  59 in fldList, rec=  59
(PID.TID 0000.0001)  MDS_READ_FIELD: opening global file: pickup_ptracers.0000188388.data
(PID.TID 0000.0001) READ_MFLDS_3D_RL: read field: "pTr60   ", #  60 in fldList, rec=  60
(PID.TID 0000.0001)  MDS_READ_FIELD: opening global file: pickup_ptracers.0000188388.data
(PID.TID 0000.0001) READ_MFLDS_3D_RL: read field: "pTr61   ", #  61 in fldList, rec=  61
(PID.TID 0000.0001)  MDS_READ_FIELD: opening global file: pickup_ptracers.0000188388.data
(PID.TID 0000.0001) READ_MFLDS_3D_RL: read field: "pTr62   ", #  62 in fldList, rec=  62
(PID.TID 0000.0001)  MDS_READ_FIELD: opening global file: pickup_ptracers.0000188388.data
(PID.TID 0000.0001) READ_MFLDS_3D_RL: read field: "pTr63   ", #  63 in fldList, rec=  63
(PID.TID 0000.0001)  MDS_READ_FIELD: opening global file: pickup_ptracers.0000188388.data
(PID.TID 0000.0001) READ_MFLDS_3D_RL: read field: "pTr64   ", #  64 in fldList, rec=  64
(PID.TID 0000.0001)  MDS_READ_FIELD: opening global file: pickup_ptracers.0000188388.data
(PID.TID 0000.0001) READ_MFLDS_3D_RL: read field: "pTr65   ", #  65 in fldList, rec=  65
(PID.TID 0000.0001)  MDS_READ_FIELD: opening global file: pickup_ptracers.0000188388.data
(PID.TID 0000.0001) READ_MFLDS_3D_RL: read field: "pTr66   ", #  66 in fldList, rec=  66
(PID.TID 0000.0001)  MDS_READ_FIELD: opening global file: pickup_ptracers.0000188388.data
(PID.TID 0000.0001) READ_MFLDS_3D_RL: read field: "pTr67   ", #  67 in fldList, rec=  67
(PID.TID 0000.0001)  MDS_READ_FIELD: opening global file: pickup_ptracers.0000188388.data
(PID.TID 0000.0001) READ_MFLDS_3D_RL: read field: "pTr68   ", #  68 in fldList, rec=  68
(PID.TID 0000.0001)  MDS_READ_FIELD: opening global file: pickup_ptracers.0000188388.data
(PID.TID 0000.0001) READ_MFLDS_3D_RL: read field: "pTr69   ", #  69 in fldList, rec=  69
(PID.TID 0000.0001)  MDS_READ_FIELD: opening global file: pickup_ptracers.0000188388.data
(PID.TID 0000.0001) READ_MFLDS_3D_RL: read field: "pTr70   ", #  70 in fldList, rec=  70
(PID.TID 0000.0001)  MDS_READ_FIELD: opening global file: pickup_ptracers.0000188388.data
(PID.TID 0000.0001) READ_MFLDS_3D_RL: read field: "pTr71   ", #  71 in fldList, rec=  71
(PID.TID 0000.0001)  MDS_READ_FIELD: opening global file: pickup_ptracers.0000188388.data
(PID.TID 0000.0001) READ_MFLDS_3D_RL: read field: "pTr72   ", #  72 in fldList, rec=  72
(PID.TID 0000.0001)  MDS_READ_FIELD: opening global file: pickup_ptracers.0000188388.data
(PID.TID 0000.0001) READ_MFLDS_3D_RL: read field: "pTr73   ", #  73 in fldList, rec=  73
(PID.TID 0000.0001)  MDS_READ_FIELD: opening global file: pickup_ptracers.0000188388.data
(PID.TID 0000.0001) READ_MFLDS_3D_RL: read field: "pTr74   ", #  74 in fldList, rec=  74
(PID.TID 0000.0001)  MDS_READ_FIELD: opening global file: pickup_ptracers.0000188388.data
(PID.TID 0000.0001) READ_MFLDS_3D_RL: read field: "pTr75   ", #  75 in fldList, rec=  75
(PID.TID 0000.0001)  MDS_READ_FIELD: opening global file: pickup_ptracers.0000188388.data
(PID.TID 0000.0001) READ_MFLDS_3D_RL: read field: "pTr76   ", #  76 in fldList, rec=  76
(PID.TID 0000.0001)  MDS_READ_FIELD: opening global file: pickup_ptracers.0000188388.data
(PID.TID 0000.0001) READ_MFLDS_3D_RL: read field: "pTr77   ", #  77 in fldList, rec=  77
(PID.TID 0000.0001)  MDS_READ_FIELD: opening global file: pickup_ptracers.0000188388.data
(PID.TID 0000.0001) READ_MFLDS_3D_RL: read field: "pTr78   ", #  78 in fldList, rec=  78
(PID.TID 0000.0001)  MDS_READ_FIELD: opening global file: pickup_ptracers.0000188388.data
(PID.TID 0000.0001) READ_MFLDS_3D_RL: read field: "pTr79   ", #  79 in fldList, rec=  79
(PID.TID 0000.0001)  MDS_READ_FIELD: opening global file: pickup_ptracers.0000188388.data
(PID.TID 0000.0001) READ_MFLDS_3D_RL: read field: "pTr80   ", #  80 in fldList, rec=  80
(PID.TID 0000.0001)  MDS_READ_FIELD: opening global file: pickup_ptracers.0000188388.data
(PID.TID 0000.0001) READ_MFLDS_3D_RL: read field: "pTr81   ", #  81 in fldList, rec=  81
(PID.TID 0000.0001)  MDS_READ_FIELD: opening global file: pickup_ptracers.0000188388.data
(PID.TID 0000.0001) READ_MFLDS_3D_RL: read field: "pTr82   ", #  82 in fldList, rec=  82
(PID.TID 0000.0001)  MDS_READ_FIELD: opening global file: pickup_ptracers.0000188388.data
(PID.TID 0000.0001) READ_MFLDS_3D_RL: read field: "pTr83   ", #  83 in fldList, rec=  83
(PID.TID 0000.0001)  MDS_READ_FIELD: opening global file: pickup_ptracers.0000188388.data
(PID.TID 0000.0001) READ_MFLDS_3D_RL: read field: "pTr84   ", #  84 in fldList, rec=  84
(PID.TID 0000.0001)  MDS_READ_FIELD: opening global file: pickup_ptracers.0000188388.data
(PID.TID 0000.0001) READ_MFLDS_3D_RL: read field: "pTr85   ", #  85 in fldList, rec=  85
(PID.TID 0000.0001)  MDS_READ_FIELD: opening global file: pickup_ptracers.0000188388.data
(PID.TID 0000.0001) READ_MFLDS_3D_RL: read field: "pTr86   ", #  86 in fldList, rec=  86
(PID.TID 0000.0001)  MDS_READ_FIELD: opening global file: pickup_ptracers.0000188388.data
(PID.TID 0000.0001) READ_MFLDS_3D_RL: read field: "pTr87   ", #  87 in fldList, rec=  87
(PID.TID 0000.0001)  MDS_READ_FIELD: opening global file: pickup_ptracers.0000188388.data
(PID.TID 0000.0001) READ_MFLDS_3D_RL: read field: "pTr88   ", #  88 in fldList, rec=  88
(PID.TID 0000.0001)  MDS_READ_FIELD: opening global file: pickup_ptracers.0000188388.data
(PID.TID 0000.0001) READ_MFLDS_3D_RL: read field: "pTr89   ", #  89 in fldList, rec=  89
(PID.TID 0000.0001)  MDS_READ_FIELD: opening global file: pickup_ptracers.0000188388.data
(PID.TID 0000.0001) READ_MFLDS_3D_RL: read field: "pTr90   ", #  90 in fldList, rec=  90
(PID.TID 0000.0001)  MDS_READ_FIELD: opening global file: pickup_ptracers.0000188388.data
(PID.TID 0000.0001) READ_MFLDS_3D_RL: read field: "pTr91   ", #  91 in fldList, rec=  91
(PID.TID 0000.0001)  MDS_READ_FIELD: opening global file: pickup_ptracers.0000188388.data
(PID.TID 0000.0001) READ_MFLDS_3D_RL: read field: "pTr92   ", #  92 in fldList, rec=  92
(PID.TID 0000.0001)  MDS_READ_FIELD: opening global file: pickup_ptracers.0000188388.data
(PID.TID 0000.0001) READ_MFLDS_3D_RL: read field: "pTr93   ", #  93 in fldList, rec=  93
(PID.TID 0000.0001)  MDS_READ_FIELD: opening global file: pickup_ptracers.0000188388.data
(PID.TID 0000.0001) READ_MFLDS_3D_RL: read field: "pTr94   ", #  94 in fldList, rec=  94
(PID.TID 0000.0001)  MDS_READ_FIELD: opening global file: pickup_ptracers.0000188388.data
(PID.TID 0000.0001) READ_MFLDS_3D_RL: read field: "pTr95   ", #  95 in fldList, rec=  95
(PID.TID 0000.0001)  MDS_READ_FIELD: opening global file: pickup_ptracers.0000188388.data
(PID.TID 0000.0001) READ_MFLDS_3D_RL: read field: "pTr96   ", #  96 in fldList, rec=  96
(PID.TID 0000.0001)  MDS_READ_FIELD: opening global file: pickup_ptracers.0000188388.data
(PID.TID 0000.0001) READ_MFLDS_3D_RL: read field: "pTr97   ", #  97 in fldList, rec=  97
(PID.TID 0000.0001)  MDS_READ_FIELD: opening global file: pickup_ptracers.0000188388.data
(PID.TID 0000.0001) READ_MFLDS_3D_RL: read field: "pTr98   ", #  98 in fldList, rec=  98
(PID.TID 0000.0001)  MDS_READ_FIELD: opening global file: pickup_ptracers.0000188388.data
(PID.TID 0000.0001) READ_MFLDS_3D_RL: read field: "pTr99   ", #  99 in fldList, rec=  99
(PID.TID 0000.0001)  MDS_READ_FIELD: opening global file: pickup_ptracers.0000188388.data
(PID.TID 0000.0001) READ_MFLDS_CHECK: - normal end ; reset MFLDS file-name: pickup_ptracers.0000188388
(PID.TID 0000.0001) // =======================================================
(PID.TID 0000.0001) // Darwin init variables >>> START <<<
(PID.TID 0000.0001) // =======================================================
(PID.TID 0000.0001) QQ random port_rand            11231   0.4077530000000000
(PID.TID 0000.0001) generate Phyto: np =    1 FIXED - no DIAZO
(PID.TID 0000.0001) generate Phyto: np =    1 Topt       =   17.2985360000000
(PID.TID 0000.0001) generate Phyto: np =    1 growthdays =  0.400000000000000
(PID.TID 0000.0001) generate Phyto: np =    1 ksatPAR    =  4.753991743704575E-002
(PID.TID 0000.0001) generate Phyto: np =    1 kinhib     =  0.945139083921900
(PID.TID 0000.0001) generate Phyto: np =    2 FIXED - no DIAZO
(PID.TID 0000.0001) generate Phyto: np =    2 Topt       =   29.0534000000000
(PID.TID 0000.0001) generate Phyto: np =    2 growthdays =  0.400000000000000
(PID.TID 0000.0001) generate Phyto: np =    2 ksatPAR    =  4.923644600026894E-002
(PID.TID 0000.0001) generate Phyto: np =    2 kinhib     =   1.02592115279712
(PID.TID 0000.0001) generate Phyto: np =    3 FIXED - no DIAZO
(PID.TID 0000.0001) generate Phyto: np =    3 Topt       =   27.5613920000000
(PID.TID 0000.0001) generate Phyto: np =    3 growthdays =  0.400000000000000
(PID.TID 0000.0001) generate Phyto: np =    3 ksatPAR    =  0.127593070401707
(PID.TID 0000.0001) generate Phyto: np =    3 kinhib     =   1.05938837772244
(PID.TID 0000.0001) generate Phyto: np =    4 FIXED - no DIAZO
(PID.TID 0000.0001) generate Phyto: np =    4 Topt       = -0.492711999999997
(PID.TID 0000.0001) generate Phyto: np =    4 growthdays =  0.400000000000000
(PID.TID 0000.0001) generate Phyto: np =    4 ksatPAR    =  3.643510891768174E-002
(PID.TID 0000.0001) generate Phyto: np =    4 kinhib     =  0.996803708472489
(PID.TID 0000.0001) generate Phyto: np =    5 FIXED - no DIAZO
(PID.TID 0000.0001) generate Phyto: np =    5 Topt       =   9.37253600000000
(PID.TID 0000.0001) generate Phyto: np =    5 growthdays =  0.400000000000000
(PID.TID 0000.0001) generate Phyto: np =    5 ksatPAR    =  4.980382657586385E-002
(PID.TID 0000.0001) generate Phyto: np =    5 kinhib     =   1.05269671662349
(PID.TID 0000.0001) generate Phyto: np =    6 FIXED - no DIAZO
(PID.TID 0000.0001) generate Phyto: np =    6 Topt       =   29.7286080000000
(PID.TID 0000.0001) generate Phyto: np =    6 growthdays =  0.400000000000000
(PID.TID 0000.0001) generate Phyto: np =    6 ksatPAR    =  8.341192581047355E-002
(PID.TID 0000.0001) generate Phyto: np =    6 kinhib     =   1.01793926372161
(PID.TID 0000.0001) generate Phyto: np =    7 FIXED - no DIAZO
(PID.TID 0000.0001) generate Phyto: np =    7 Topt       =  -1.71912800000000
(PID.TID 0000.0001) generate Phyto: np =    7 growthdays =  0.700000000000000
(PID.TID 0000.0001) generate Phyto: np =    7 ksatPAR    =  1.682639505265385E-003
(PID.TID 0000.0001) generate Phyto: np =    7 kinhib     =   5.95938178456200
(PID.TID 0000.0001) generate Phyto: np =    8 FIXED - no DIAZO
(PID.TID 0000.0001) generate Phyto: np =    8 Topt       =   6.94750400000000
(PID.TID 0000.0001) generate Phyto: np =    8 growthdays =  0.700000000000000
(PID.TID 0000.0001) generate Phyto: np =    8 ksatPAR    =  0.128619129093561
(PID.TID 0000.0001) generate Phyto: np =    8 kinhib     =   5.98917463537917
(PID.TID 0000.0001) generate Phyto: np =    9 FIXED - no DIAZO
(PID.TID 0000.0001) generate Phyto: np =    9 Topt       =   29.9905760000000
(PID.TID 0000.0001) generate Phyto: np =    9 growthdays =  0.700000000000000
(PID.TID 0000.0001) generate Phyto: np =    9 ksatPAR    =  6.889656901434840E-002
(PID.TID 0000.0001) generate Phyto: np =    9 kinhib     =   5.96115249392937
(PID.TID 0000.0001) generate Phyto: np =   10 FIXED - no DIAZO
(PID.TID 0000.0001) generate Phyto: np =   10 Topt       =   5.39869600000000
(PID.TID 0000.0001) generate Phyto: np =   10 growthdays =  0.400000000000000
(PID.TID 0000.0001) generate Phyto: np =   10 ksatPAR    =  0.124781017116400
(PID.TID 0000.0001) generate Phyto: np =   10 kinhib     =  0.967268711527369
(PID.TID 0000.0001) generate Phyto: np =   11 FIXED - no DIAZO
(PID.TID 0000.0001) generate Phyto: np =   11 Topt       =   21.4964720000000
(PID.TID 0000.0001) generate Phyto: np =   11 growthdays =  0.400000000000000
(PID.TID 0000.0001) generate Phyto: np =   11 ksatPAR    =  0.147515462286491
(PID.TID 0000.0001) generate Phyto: np =   11 kinhib     =  0.986772247214294
(PID.TID 0000.0001) generate Phyto: np =   12 FIXED - no DIAZO
(PID.TID 0000.0001) generate Phyto: np =   12 Topt       =   24.0225600000000
(PID.TID 0000.0001) generate Phyto: np =   12 growthdays =  0.700000000000000
(PID.TID 0000.0001) generate Phyto: np =   12 ksatPAR    =  0.527110249090556
(PID.TID 0000.0001) generate Phyto: np =   12 kinhib     =   5.92012798922102
(PID.TID 0000.0001) generate Phyto: np =   13 FIXED - no DIAZO
(PID.TID 0000.0001) generate Phyto: np =   13 Topt       =   13.0024000000000
(PID.TID 0000.0001) generate Phyto: np =   13 growthdays =  0.400000000000000
(PID.TID 0000.0001) generate Phyto: np =   13 ksatPAR    =  0.204149722455236
(PID.TID 0000.0001) generate Phyto: np =   13 kinhib     =  0.946347461111155
(PID.TID 0000.0001) generate Phyto: np =   14 FIXED - no DIAZO
(PID.TID 0000.0001) generate Phyto: np =   14 Topt       =  0.834080000000000
(PID.TID 0000.0001) generate Phyto: np =   14 growthdays =  0.700000000000000
(PID.TID 0000.0001) generate Phyto: np =   14 ksatPAR    =  3.422101821949280E-002
(PID.TID 0000.0001) generate Phyto: np =   14 kinhib     =   5.89641706309178
(PID.TID 0000.0001) generate Phyto: np =   15 FIXED - no DIAZO
(PID.TID 0000.0001) generate Phyto: np =   15 Topt       =   22.6453920000000
(PID.TID 0000.0001) generate Phyto: np =   15 growthdays =  0.400000000000000
(PID.TID 0000.0001) generate Phyto: np =   15 ksatPAR    =  9.602835858486984E-002
(PID.TID 0000.0001) generate Phyto: np =   15 kinhib     =   1.01566976029158
(PID.TID 0000.0001) generate Phyto: np =   16 FIXED - no DIAZO
(PID.TID 0000.0001) generate Phyto: np =   16 Topt       =   2.82448800000000
(PID.TID 0000.0001) generate Phyto: np =   16 growthdays =  0.400000000000000
(PID.TID 0000.0001) generate Phyto: np =   16 ksatPAR    =  0.124763361840688
(PID.TID 0000.0001) generate Phyto: np =   16 kinhib     =  0.993689751936445
(PID.TID 0000.0001) generate Phyto: np =   17 FIXED - no DIAZO
(PID.TID 0000.0001) generate Phyto: np =   17 Topt       =   13.3291520000000
(PID.TID 0000.0001) generate Phyto: np =   17 growthdays =  0.700000000000000
(PID.TID 0000.0001) generate Phyto: np =   17 ksatPAR    =  5.351651701043164E-002
(PID.TID 0000.0001) generate Phyto: np =   17 kinhib     =   6.01826919046567
(PID.TID 0000.0001) generate Phyto: np =   18 FIXED - no DIAZO
(PID.TID 0000.0001) generate Phyto: np =   18 Topt       =   28.0095920000000
(PID.TID 0000.0001) generate Phyto: np =   18 growthdays =  0.400000000000000
(PID.TID 0000.0001) generate Phyto: np =   18 ksatPAR    =  0.196540447082229
(PID.TID 0000.0001) generate Phyto: np =   18 kinhib     =   1.10282485155531
(PID.TID 0000.0001) generate Phyto: np =   19 FIXED - no DIAZO
(PID.TID 0000.0001) generate Phyto: np =   19 Topt       =   29.5336720000000
(PID.TID 0000.0001) generate Phyto: np =   19 growthdays =  0.400000000000000
(PID.TID 0000.0001) generate Phyto: np =   19 ksatPAR    =  0.179678102948583
(PID.TID 0000.0001) generate Phyto: np =   19 kinhib     =  0.919318815896245
(PID.TID 0000.0001) generate Phyto: np =   20 FIXED - no DIAZO
(PID.TID 0000.0001) generate Phyto: np =   20 Topt       =   22.1113360000000
(PID.TID 0000.0001) generate Phyto: np =   20 growthdays =  0.700000000000000
(PID.TID 0000.0001) generate Phyto: np =   20 ksatPAR    =  0.154385749117443
(PID.TID 0000.0001) generate Phyto: np =   20 kinhib     =   5.97068282023009
(PID.TID 0000.0001) generate Phyto: np =   21 FIXED - no DIAZO
(PID.TID 0000.0001) generate Phyto: np =   21 Topt       =  -1.62076800000000
(PID.TID 0000.0001) generate Phyto: np =   21 growthdays =  0.400000000000000
(PID.TID 0000.0001) generate Phyto: np =   21 ksatPAR    =  0.104460811625040
(PID.TID 0000.0001) generate Phyto: np =   21 kinhib     =   1.02770558674108
(PID.TID 0000.0001) generate Phyto: np =   22 FIXED - no DIAZO
(PID.TID 0000.0001) generate Phyto: np =   22 Topt       =   6.43084000000000
(PID.TID 0000.0001) generate Phyto: np =   22 growthdays =  0.700000000000000
(PID.TID 0000.0001) generate Phyto: np =   22 ksatPAR    =  6.257368061992452E-003
(PID.TID 0000.0001) generate Phyto: np =   22 kinhib     =   5.84339306619059
(PID.TID 0000.0001) generate Phyto: np =   23 FIXED - no DIAZO
(PID.TID 0000.0001) generate Phyto: np =   23 Topt       =   18.7486240000000
(PID.TID 0000.0001) generate Phyto: np =   23 growthdays =  0.400000000000000
(PID.TID 0000.0001) generate Phyto: np =   23 ksatPAR    =  3.090353819970153E-002
(PID.TID 0000.0001) generate Phyto: np =   23 kinhib     =  0.976250189021231
(PID.TID 0000.0001) generate Phyto: np =   24 FIXED - no DIAZO
(PID.TID 0000.0001) generate Phyto: np =   24 Topt       =   9.57925600000000
(PID.TID 0000.0001) generate Phyto: np =   24 growthdays =  0.700000000000000
(PID.TID 0000.0001) generate Phyto: np =   24 ksatPAR    =  0.271269857014354
(PID.TID 0000.0001) generate Phyto: np =   24 kinhib     =   6.16622468352471
(PID.TID 0000.0001) generate Phyto: np =   25 FIXED - no DIAZO
(PID.TID 0000.0001) generate Phyto: np =   25 Topt       =   9.46773600000000
(PID.TID 0000.0001) generate Phyto: np =   25 growthdays =  0.400000000000000
(PID.TID 0000.0001) generate Phyto: np =   25 ksatPAR    =  5.177191043070091E-002
(PID.TID 0000.0001) generate Phyto: np =   25 kinhib     =   1.10904677073088
(PID.TID 0000.0001) generate Phyto: np =   26 FIXED - no DIAZO
(PID.TID 0000.0001) generate Phyto: np =   26 Topt       =   14.1060480000000
(PID.TID 0000.0001) generate Phyto: np =   26 growthdays =  0.400000000000000
(PID.TID 0000.0001) generate Phyto: np =   26 ksatPAR    =  0.135684942592547
(PID.TID 0000.0001) generate Phyto: np =   26 kinhib     =  0.941402890695480
(PID.TID 0000.0001) generate Phyto: np =   27 FIXED - no DIAZO
(PID.TID 0000.0001) generate Phyto: np =   27 Topt       =   22.8044160000000
(PID.TID 0000.0001) generate Phyto: np =   27 growthdays =  0.400000000000000
(PID.TID 0000.0001) generate Phyto: np =   27 ksatPAR    =  0.172472984387804
(PID.TID 0000.0001) generate Phyto: np =   27 kinhib     =   1.02442046262991
(PID.TID 0000.0001) generate Phyto: np =   28 FIXED - no DIAZO
(PID.TID 0000.0001) generate Phyto: np =   28 Topt       =   29.4197600000000
(PID.TID 0000.0001) generate Phyto: np =   28 growthdays =  0.400000000000000
(PID.TID 0000.0001) generate Phyto: np =   28 ksatPAR    =  0.134458926757846
(PID.TID 0000.0001) generate Phyto: np =   28 kinhib     =  0.990541525884293
(PID.TID 0000.0001) generate Phyto: np =   29 FIXED - no DIAZO
(PID.TID 0000.0001) generate Phyto: np =   29 Topt       =   26.5193280000000
(PID.TID 0000.0001) generate Phyto: np =   29 growthdays =  0.700000000000000
(PID.TID 0000.0001) generate Phyto: np =   29 ksatPAR    =  0.186439589683888
(PID.TID 0000.0001) generate Phyto: np =   29 kinhib     =   5.87422363112705
(PID.TID 0000.0001) generate Phyto: np =   30 FIXED - no DIAZO
(PID.TID 0000.0001) generate Phyto: np =   30 Topt       =   9.80770400000000
(PID.TID 0000.0001) generate Phyto: np =   30 growthdays =  0.700000000000000
(PID.TID 0000.0001) generate Phyto: np =   30 ksatPAR    =  0.342472354626977
(PID.TID 0000.0001) generate Phyto: np =   30 kinhib     =   6.08059410854512
(PID.TID 0000.0001) generate Phyto: np =   31 FIXED - no DIAZO
(PID.TID 0000.0001) generate Phyto: np =   31 Topt       =   11.0381840000000
(PID.TID 0000.0001) generate Phyto: np =   31 growthdays =  0.400000000000000
(PID.TID 0000.0001) generate Phyto: np =   31 ksatPAR    =  8.480537880079783E-002
(PID.TID 0000.0001) generate Phyto: np =   31 kinhib     =   1.06525656160335
(PID.TID 0000.0001) generate Phyto: np =   32 FIXED - no DIAZO
(PID.TID 0000.0001) generate Phyto: np =   32 Topt       =   25.3502480000000
(PID.TID 0000.0001) generate Phyto: np =   32 growthdays =  0.700000000000000
(PID.TID 0000.0001) generate Phyto: np =   32 ksatPAR    =  0.193436228301583
(PID.TID 0000.0001) generate Phyto: np =   32 kinhib     =   6.22846922680204
(PID.TID 0000.0001) generate Phyto: np =   33 FIXED - no DIAZO
(PID.TID 0000.0001) generate Phyto: np =   33 Topt       =   18.9673200000000
(PID.TID 0000.0001) generate Phyto: np =   33 growthdays =  0.400000000000000
(PID.TID 0000.0001) generate Phyto: np =   33 ksatPAR    =  0.203216458595352
(PID.TID 0000.0001) generate Phyto: np =   33 kinhib     =  0.982966195202196
(PID.TID 0000.0001) generate Phyto: np =   34 FIXED - no DIAZO
(PID.TID 0000.0001) generate Phyto: np =   34 Topt       =   23.5114240000000
(PID.TID 0000.0001) generate Phyto: np =   34 growthdays =  0.700000000000000
(PID.TID 0000.0001) generate Phyto: np =   34 ksatPAR    =  0.141350011321056
(PID.TID 0000.0001) generate Phyto: np =   34 kinhib     =   5.96261898660398
(PID.TID 0000.0001) generate Phyto: np =   35 FIXED - no DIAZO
(PID.TID 0000.0001) generate Phyto: np =   35 Topt       = -0.994647999999998
(PID.TID 0000.0001) generate Phyto: np =   35 growthdays =  0.700000000000000
(PID.TID 0000.0001) generate Phyto: np =   35 ksatPAR    =  0.268136053039389
(PID.TID 0000.0001) generate Phyto: np =   35 kinhib     =   5.95083885927037
(PID.TID 0000.0001) generate Phyto: np =   36 FIXED - no DIAZO
(PID.TID 0000.0001) generate Phyto: np =   36 Topt       =   23.5430640000000
(PID.TID 0000.0001) generate Phyto: np =   36 growthdays =  0.700000000000000
(PID.TID 0000.0001) generate Phyto: np =   36 ksatPAR    =  0.168364918798085
(PID.TID 0000.0001) generate Phyto: np =   36 kinhib     =   6.03122182876500
(PID.TID 0000.0001) generate Phyto: np =   37 FIXED - no DIAZO
(PID.TID 0000.0001) generate Phyto: np =   37 Topt       =   7.68813600000000
(PID.TID 0000.0001) generate Phyto: np =   37 growthdays =  0.400000000000000
(PID.TID 0000.0001) generate Phyto: np =   37 ksatPAR    =  7.111491396797376E-002
(PID.TID 0000.0001) generate Phyto: np =   37 kinhib     =  0.982378357246977
(PID.TID 0000.0001) generate Phyto: np =   38 FIXED - no DIAZO
(PID.TID 0000.0001) generate Phyto: np =   38 Topt       =   9.77611200000000
(PID.TID 0000.0001) generate Phyto: np =   38 growthdays =  0.700000000000000
(PID.TID 0000.0001) generate Phyto: np =   38 ksatPAR    =  0.558103188744646
(PID.TID 0000.0001) generate Phyto: np =   38 kinhib     =   6.04554791190068
(PID.TID 0000.0001) generate Phyto: np =   39 FIXED - no DIAZO
(PID.TID 0000.0001) generate Phyto: np =   39 Topt       =   14.8509840000000
(PID.TID 0000.0001) generate Phyto: np =   39 growthdays =  0.700000000000000
(PID.TID 0000.0001) generate Phyto: np =   39 ksatPAR    =  0.306493477779170
(PID.TID 0000.0001) generate Phyto: np =   39 kinhib     =   6.01997061644693
(PID.TID 0000.0001) generate Phyto: np =   40 FIXED - no DIAZO
(PID.TID 0000.0001) generate Phyto: np =   40 Topt       =   9.69444000000000
(PID.TID 0000.0001) generate Phyto: np =   40 growthdays =  0.700000000000000
(PID.TID 0000.0001) generate Phyto: np =   40 ksatPAR    =  3.118965550680350E-002
(PID.TID 0000.0001) generate Phyto: np =   40 kinhib     =   6.06571365791321
(PID.TID 0000.0001) generate Phyto: np =   41 FIXED - no DIAZO
(PID.TID 0000.0001) generate Phyto: np =   41 Topt       =  0.896552000000000
(PID.TID 0000.0001) generate Phyto: np =   41 growthdays =  0.700000000000000
(PID.TID 0000.0001) generate Phyto: np =   41 ksatPAR    =  0.378236796762638
(PID.TID 0000.0001) generate Phyto: np =   41 kinhib     =   5.91288844670683
(PID.TID 0000.0001) generate Phyto: np =   42 FIXED - no DIAZO
(PID.TID 0000.0001) generate Phyto: np =   42 Topt       =   18.2552160000000
(PID.TID 0000.0001) generate Phyto: np =   42 growthdays =  0.700000000000000
(PID.TID 0000.0001) generate Phyto: np =   42 ksatPAR    =  0.318117928473921
(PID.TID 0000.0001) generate Phyto: np =   42 kinhib     =   6.16327023262238
(PID.TID 0000.0001) generate Phyto: np =   43 FIXED - no DIAZO
(PID.TID 0000.0001) generate Phyto: np =   43 Topt       =   16.6858720000000
(PID.TID 0000.0001) generate Phyto: np =   43 growthdays =  0.700000000000000
(PID.TID 0000.0001) generate Phyto: np =   43 ksatPAR    =  2.813436232842084E-002
(PID.TID 0000.0001) generate Phyto: np =   43 kinhib     =   6.18380297878198
(PID.TID 0000.0001) generate Phyto: np =   44 FIXED - no DIAZO
(PID.TID 0000.0001) generate Phyto: np =   44 Topt       =   22.1173760000000
(PID.TID 0000.0001) generate Phyto: np =   44 growthdays =  0.700000000000000
(PID.TID 0000.0001) generate Phyto: np =   44 ksatPAR    =  0.406789259398356
(PID.TID 0000.0001) generate Phyto: np =   44 kinhib     =   5.82017318083649
(PID.TID 0000.0001) generate Phyto: np =   45 FIXED - no DIAZO
(PID.TID 0000.0001) generate Phyto: np =   45 Topt       =   29.0926560000000
(PID.TID 0000.0001) generate Phyto: np =   45 growthdays =  0.700000000000000
(PID.TID 0000.0001) generate Phyto: np =   45 ksatPAR    =  5.256365242361946E-002
(PID.TID 0000.0001) generate Phyto: np =   45 kinhib     =   6.00777112345545
(PID.TID 0000.0001) generate Phyto: np =   46 FIXED - no DIAZO
(PID.TID 0000.0001) generate Phyto: np =   46 Topt       =   11.3758720000000
(PID.TID 0000.0001) generate Phyto: np =   46 growthdays =  0.700000000000000
(PID.TID 0000.0001) generate Phyto: np =   46 ksatPAR    =  3.381066456941417E-002
(PID.TID 0000.0001) generate Phyto: np =   46 kinhib     =   5.92689577107084
(PID.TID 0000.0001) generate Phyto: np =   47 FIXED - no DIAZO
(PID.TID 0000.0001) generate Phyto: np =   47 Topt       =   6.38521600000000
(PID.TID 0000.0001) generate Phyto: np =   47 growthdays =  0.700000000000000
(PID.TID 0000.0001) generate Phyto: np =   47 ksatPAR    =  0.200448942387463
(PID.TID 0000.0001) generate Phyto: np =   47 kinhib     =   6.00706705760867
(PID.TID 0000.0001) generate Phyto: np =   48 FIXED - no DIAZO
(PID.TID 0000.0001) generate Phyto: np =   48 Topt       =   29.5485520000000
(PID.TID 0000.0001) generate Phyto: np =   48 growthdays =  0.700000000000000
(PID.TID 0000.0001) generate Phyto: np =   48 ksatPAR    =  0.279808409368532
(PID.TID 0000.0001) generate Phyto: np =   48 kinhib     =   5.94155347123765
(PID.TID 0000.0001) generate Phyto: np =   49 FIXED - no DIAZO
(PID.TID 0000.0001) generate Phyto: np =   49 Topt       =   23.5670480000000
(PID.TID 0000.0001) generate Phyto: np =   49 growthdays =  0.400000000000000
(PID.TID 0000.0001) generate Phyto: np =   49 ksatPAR    =  0.185214720063780
(PID.TID 0000.0001) generate Phyto: np =   49 kinhib     =   1.06236127039999
(PID.TID 0000.0001) generate Phyto: np =   50 FIXED - no DIAZO
(PID.TID 0000.0001) generate Phyto: np =   50 Topt       = -0.443591999999999
(PID.TID 0000.0001) generate Phyto: np =   50 growthdays =  0.400000000000000
(PID.TID 0000.0001) generate Phyto: np =   50 ksatPAR    =  0.139724863181137
(PID.TID 0000.0001) generate Phyto: np =   50 kinhib     =  0.995237786860751
(PID.TID 0000.0001) generate Phyto: np =   51 FIXED - no DIAZO
(PID.TID 0000.0001) generate Phyto: np =   51 Topt       =  -1.58132000000000
(PID.TID 0000.0001) generate Phyto: np =   51 growthdays =  0.700000000000000
(PID.TID 0000.0001) generate Phyto: np =   51 ksatPAR    =  0.157344897351611
(PID.TID 0000.0001) generate Phyto: np =   51 kinhib     =   5.92057752401380
(PID.TID 0000.0001) generate Phyto: np =   52 FIXED - no DIAZO
(PID.TID 0000.0001) generate Phyto: np =   52 Topt       =   11.6882800000000
(PID.TID 0000.0001) generate Phyto: np =   52 growthdays =  0.400000000000000
(PID.TID 0000.0001) generate Phyto: np =   52 ksatPAR    =  0.128041314130097
(PID.TID 0000.0001) generate Phyto: np =   52 kinhib     =   1.03417292656155
(PID.TID 0000.0001) generate Phyto: np =   53 FIXED - no DIAZO
(PID.TID 0000.0001) generate Phyto: np =   53 Topt       =   16.6421520000000
(PID.TID 0000.0001) generate Phyto: np =   53 growthdays =  0.700000000000000
(PID.TID 0000.0001) generate Phyto: np =   53 ksatPAR    =  0.516202474314366
(PID.TID 0000.0001) generate Phyto: np =   53 kinhib     =   6.07369643705530
(PID.TID 0000.0001) generate Phyto: np =   54 FIXED - no DIAZO
(PID.TID 0000.0001) generate Phyto: np =   54 Topt       =   20.9403920000000
(PID.TID 0000.0001) generate Phyto: np =   54 growthdays =  0.400000000000000
(PID.TID 0000.0001) generate Phyto: np =   54 ksatPAR    =  0.206679164151945
(PID.TID 0000.0001) generate Phyto: np =   54 kinhib     =   1.03343045842120
(PID.TID 0000.0001) generate Phyto: np =   55 FIXED - no DIAZO
(PID.TID 0000.0001) generate Phyto: np =   55 Topt       =   19.1291920000000
(PID.TID 0000.0001) generate Phyto: np =   55 growthdays =  0.400000000000000
(PID.TID 0000.0001) generate Phyto: np =   55 ksatPAR    =  4.070672410424155E-002
(PID.TID 0000.0001) generate Phyto: np =   55 kinhib     =  0.989520210171635
(PID.TID 0000.0001) generate Phyto: np =   56 FIXED - no DIAZO
(PID.TID 0000.0001) generate Phyto: np =   56 Topt       =   18.3917360000000
(PID.TID 0000.0001) generate Phyto: np =   56 growthdays =  0.400000000000000
(PID.TID 0000.0001) generate Phyto: np =   56 ksatPAR    =  0.155579067567054
(PID.TID 0000.0001) generate Phyto: np =   56 kinhib     =  0.966046839298621
(PID.TID 0000.0001) generate Phyto: np =   57 FIXED - no DIAZO
(PID.TID 0000.0001) generate Phyto: np =   57 Topt       =   10.6107120000000
(PID.TID 0000.0001) generate Phyto: np =   57 growthdays =  0.700000000000000
(PID.TID 0000.0001) generate Phyto: np =   57 ksatPAR    =  0.231358313721257
(PID.TID 0000.0001) generate Phyto: np =   57 kinhib     =   6.02438216615679
(PID.TID 0000.0001) generate Phyto: np =   58 FIXED - no DIAZO
(PID.TID 0000.0001) generate Phyto: np =   58 Topt       =   22.7951440000000
(PID.TID 0000.0001) generate Phyto: np =   58 growthdays =  0.400000000000000
(PID.TID 0000.0001) generate Phyto: np =   58 ksatPAR    =  0.101041476273838
(PID.TID 0000.0001) generate Phyto: np =   58 kinhib     =   1.02017769086566
(PID.TID 0000.0001) generate Phyto: np =   59 FIXED - no DIAZO
(PID.TID 0000.0001) generate Phyto: np =   59 Topt       =   10.2133920000000
(PID.TID 0000.0001) generate Phyto: np =   59 growthdays =  0.400000000000000
(PID.TID 0000.0001) generate Phyto: np =   59 ksatPAR    =  0.133093936701744
(PID.TID 0000.0001) generate Phyto: np =   59 kinhib     =  0.999785682090672
(PID.TID 0000.0001) generate Phyto: np =   60 FIXED - no DIAZO
(PID.TID 0000.0001) generate Phyto: np =   60 Topt       =   23.7467920000000
(PID.TID 0000.0001) generate Phyto: np =   60 growthdays =  0.400000000000000
(PID.TID 0000.0001) generate Phyto: np =   60 ksatPAR    =  9.190118508369936E-002
(PID.TID 0000.0001) generate Phyto: np =   60 kinhib     =  0.983177609461982
(PID.TID 0000.0001) generate Phyto: np =   61 FIXED - no DIAZO
(PID.TID 0000.0001) generate Phyto: np =   61 Topt       =   10.1935040000000
(PID.TID 0000.0001) generate Phyto: np =   61 growthdays =  0.400000000000000
(PID.TID 0000.0001) generate Phyto: np =   61 ksatPAR    =  9.105329935178616E-002
(PID.TID 0000.0001) generate Phyto: np =   61 kinhib     =   1.03599245224756
(PID.TID 0000.0001) generate Phyto: np =   62 FIXED - no DIAZO
(PID.TID 0000.0001) generate Phyto: np =   62 Topt       =   28.5815520000000
(PID.TID 0000.0001) generate Phyto: np =   62 growthdays =  0.400000000000000
(PID.TID 0000.0001) generate Phyto: np =   62 ksatPAR    =  2.742531995377209E-002
(PID.TID 0000.0001) generate Phyto: np =   62 kinhib     =   1.03568114400114
(PID.TID 0000.0001) generate Phyto: np =   63 FIXED - no DIAZO
(PID.TID 0000.0001) generate Phyto: np =   63 Topt       =   6.57254400000000
(PID.TID 0000.0001) generate Phyto: np =   63 growthdays =  0.400000000000000
(PID.TID 0000.0001) generate Phyto: np =   63 ksatPAR    =  3.344158430968763E-002
(PID.TID 0000.0001) generate Phyto: np =   63 kinhib     =  0.951329921943717
(PID.TID 0000.0001) generate Phyto: np =   64 FIXED - no DIAZO
(PID.TID 0000.0001) generate Phyto: np =   64 Topt       =   5.89556800000000
(PID.TID 0000.0001) generate Phyto: np =   64 growthdays =  0.400000000000000
(PID.TID 0000.0001) generate Phyto: np =   64 ksatPAR    =  8.454186077698291E-002
(PID.TID 0000.0001) generate Phyto: np =   64 kinhib     =  0.983422366682897
(PID.TID 0000.0001) generate Phyto: np =   65 FIXED - no DIAZO
(PID.TID 0000.0001) generate Phyto: np =   65 Topt       =   29.2508640000000
(PID.TID 0000.0001) generate Phyto: np =   65 growthdays =  0.700000000000000
(PID.TID 0000.0001) generate Phyto: np =   65 ksatPAR    =  0.148228921491778
(PID.TID 0000.0001) generate Phyto: np =   65 kinhib     =   6.16458534282529
(PID.TID 0000.0001) generate Phyto: np =   66 FIXED - no DIAZO
(PID.TID 0000.0001) generate Phyto: np =   66 Topt       =   9.81012000000000
(PID.TID 0000.0001) generate Phyto: np =   66 growthdays =  0.700000000000000
(PID.TID 0000.0001) generate Phyto: np =   66 ksatPAR    =  0.159482456193842
(PID.TID 0000.0001) generate Phyto: np =   66 kinhib     =   6.04083675475049
(PID.TID 0000.0001) generate Phyto: np =   67 FIXED - no DIAZO
(PID.TID 0000.0001) generate Phyto: np =   67 Topt       =   7.57160000000000
(PID.TID 0000.0001) generate Phyto: np =   67 growthdays =  0.700000000000000
(PID.TID 0000.0001) generate Phyto: np =   67 ksatPAR    =  0.122729910282547
(PID.TID 0000.0001) generate Phyto: np =   67 kinhib     =   5.97845222890357
(PID.TID 0000.0001) generate Phyto: np =   68 FIXED - no DIAZO
(PID.TID 0000.0001) generate Phyto: np =   68 Topt       =   26.8996720000000
(PID.TID 0000.0001) generate Phyto: np =   68 growthdays =  0.700000000000000
(PID.TID 0000.0001) generate Phyto: np =   68 ksatPAR    =  0.298022768335670
(PID.TID 0000.0001) generate Phyto: np =   68 kinhib     =   5.95484943326809
(PID.TID 0000.0001) generate Phyto: np =   69 FIXED - no DIAZO
(PID.TID 0000.0001) generate Phyto: np =   69 Topt       =   1.16207200000000
(PID.TID 0000.0001) generate Phyto: np =   69 growthdays =  0.400000000000000
(PID.TID 0000.0001) generate Phyto: np =   69 ksatPAR    =  0.172402000511801
(PID.TID 0000.0001) generate Phyto: np =   69 kinhib     =   1.01380266552364
(PID.TID 0000.0001) generate Phyto: np =   70 FIXED - no DIAZO
(PID.TID 0000.0001) generate Phyto: np =   70 Topt       =   2.77416800000000
(PID.TID 0000.0001) generate Phyto: np =   70 growthdays =  0.700000000000000
(PID.TID 0000.0001) generate Phyto: np =   70 ksatPAR    =  0.235275794605117
(PID.TID 0000.0001) generate Phyto: np =   70 kinhib     =   5.94674911430353
(PID.TID 0000.0001) generate Phyto: np =   71 FIXED - no DIAZO
(PID.TID 0000.0001) generate Phyto: np =   71 Topt       =   28.3795200000000
(PID.TID 0000.0001) generate Phyto: np =   71 growthdays =  0.400000000000000
(PID.TID 0000.0001) generate Phyto: np =   71 ksatPAR    =  0.100229095506343
(PID.TID 0000.0001) generate Phyto: np =   71 kinhib     =  0.957470697882402
(PID.TID 0000.0001) generate Phyto: np =   72 FIXED - no DIAZO
(PID.TID 0000.0001) generate Phyto: np =   72 Topt       =   25.7481520000000
(PID.TID 0000.0001) generate Phyto: np =   72 growthdays =  0.700000000000000
(PID.TID 0000.0001) generate Phyto: np =   72 ksatPAR    =  3.069286888177783E-002
(PID.TID 0000.0001) generate Phyto: np =   72 kinhib     =   5.93650735975478
(PID.TID 0000.0001) generate Phyto: np =   73 FIXED - no DIAZO
(PID.TID 0000.0001) generate Phyto: np =   73 Topt       =   15.2441120000000
(PID.TID 0000.0001) generate Phyto: np =   73 growthdays =  0.700000000000000
(PID.TID 0000.0001) generate Phyto: np =   73 ksatPAR    =  0.194471052203403
(PID.TID 0000.0001) generate Phyto: np =   73 kinhib     =   5.92087292662694
(PID.TID 0000.0001) generate Phyto: np =   74 FIXED - no DIAZO
(PID.TID 0000.0001) generate Phyto: np =   74 Topt       =   28.0978400000000
(PID.TID 0000.0001) generate Phyto: np =   74 growthdays =  0.400000000000000
(PID.TID 0000.0001) generate Phyto: np =   74 ksatPAR    =  0.103404998317622
(PID.TID 0000.0001) generate Phyto: np =   74 kinhib     =   1.02845918471007
(PID.TID 0000.0001) generate Phyto: np =   75 FIXED - no DIAZO
(PID.TID 0000.0001) generate Phyto: np =   75 Topt       =   14.4243200000000
(PID.TID 0000.0001) generate Phyto: np =   75 growthdays =  0.700000000000000
(PID.TID 0000.0001) generate Phyto: np =   75 ksatPAR    =  0.270637312891584
(PID.TID 0000.0001) generate Phyto: np =   75 kinhib     =   5.89937583925638
(PID.TID 0000.0001) generate Phyto: np =   76 FIXED - no DIAZO
(PID.TID 0000.0001) generate Phyto: np =   76 Topt       =   11.9099360000000
(PID.TID 0000.0001) generate Phyto: np =   76 growthdays =  0.700000000000000
(PID.TID 0000.0001) generate Phyto: np =   76 ksatPAR    =  0.474034438536840
(PID.TID 0000.0001) generate Phyto: np =   76 kinhib     =   6.10111785984735
(PID.TID 0000.0001) generate Phyto: np =   77 FIXED - no DIAZO
(PID.TID 0000.0001) generate Phyto: np =   77 Topt       =   19.2798560000000
(PID.TID 0000.0001) generate Phyto: np =   77 growthdays =  0.700000000000000
(PID.TID 0000.0001) generate Phyto: np =   77 ksatPAR    =  4.748265146449229E-002
(PID.TID 0000.0001) generate Phyto: np =   77 kinhib     =   5.92859646685737
(PID.TID 0000.0001) generate Phyto: np =   78 FIXED - no DIAZO
(PID.TID 0000.0001) generate Phyto: np =   78 Topt       =   26.8287680000000
(PID.TID 0000.0001) generate Phyto: np =   78 growthdays =  0.400000000000000
(PID.TID 0000.0001) generate Phyto: np =   78 ksatPAR    =  0.157111603428932
(PID.TID 0000.0001) generate Phyto: np =   78 kinhib     =   1.02881501025404
(PID.TID 0000.0001) // =======================================================
(PID.TID 0000.0001) // Darwin init variables >>> END <<<
(PID.TID 0000.0001) // =======================================================
(PID.TID 0000.0001)  MDSREADFIELDXZ: opening global file: OBNu_baltic_76x72.bin
(PID.TID 0000.0001)  MDSREADFIELDXZ: opening global file: OBNu_baltic_76x72.bin
(PID.TID 0000.0001)  MDSREADFIELDXZ: opening global file: OBNv_baltic_76x72.bin
(PID.TID 0000.0001)  MDSREADFIELDXZ: opening global file: OBNv_baltic_76x72.bin
(PID.TID 0000.0001)  MDSREADFIELDXZ: opening global file: OBNt_baltic_76x72.stable
(PID.TID 0000.0001)  MDSREADFIELDXZ: opening global file: OBNt_baltic_76x72.stable
(PID.TID 0000.0001)  MDSREADFIELDXZ: opening global file: OBNs_baltic_76x72.stable
(PID.TID 0000.0001)  MDSREADFIELDXZ: opening global file: OBNs_baltic_76x72.stable
(PID.TID 0000.0001)  MDSREADFIELDXZ: opening global file: OBN_PO4_76x72x24_baltic_128.bin
(PID.TID 0000.0001)  MDSREADFIELDXZ: opening global file: OBN_PO4_76x72x24_baltic_128.bin
(PID.TID 0000.0001)  MDSREADFIELDXZ: opening global file: OBN_NO3_76x72x24_baltic_128.bin
(PID.TID 0000.0001)  MDSREADFIELDXZ: opening global file: OBN_NO3_76x72x24_baltic_128.bin
(PID.TID 0000.0001)  MDSREADFIELDXZ: opening global file: OBN_FeT_76x72x24_baltic_128.bin
(PID.TID 0000.0001)  MDSREADFIELDXZ: opening global file: OBN_FeT_76x72x24_baltic_128.bin
(PID.TID 0000.0001)  MDSREADFIELDXZ: opening global file: OBN_SiO2_76x72x24_baltic_128.bin
(PID.TID 0000.0001)  MDSREADFIELDXZ: opening global file: OBN_SiO2_76x72x24_baltic_128.bin
(PID.TID 0000.0001)  MDSREADFIELDXZ: opening global file: OBN_DOP_76x72x24_baltic_128.bin
(PID.TID 0000.0001)  MDSREADFIELDXZ: opening global file: OBN_DOP_76x72x24_baltic_128.bin
(PID.TID 0000.0001)  MDSREADFIELDXZ: opening global file: OBN_DON_76x72x24_baltic_128.bin
(PID.TID 0000.0001)  MDSREADFIELDXZ: opening global file: OBN_DON_76x72x24_baltic_128.bin
(PID.TID 0000.0001)  MDSREADFIELDXZ: opening global file: OBN_DOFe_76x72x24_baltic_128.bin
(PID.TID 0000.0001)  MDSREADFIELDXZ: opening global file: OBN_DOFe_76x72x24_baltic_128.bin
(PID.TID 0000.0001)  MDSREADFIELDXZ: opening global file: OBN_ZOO1P_76x72x24_baltic_128.bin
(PID.TID 0000.0001)  MDSREADFIELDXZ: opening global file: OBN_ZOO1P_76x72x24_baltic_128.bin
(PID.TID 0000.0001)  MDSREADFIELDXZ: opening global file: OBN_ZOO1N_76x72x24_baltic_128.bin
(PID.TID 0000.0001)  MDSREADFIELDXZ: opening global file: OBN_ZOO1N_76x72x24_baltic_128.bin
(PID.TID 0000.0001)  MDSREADFIELDXZ: opening global file: OBN_ZOO1Fe_76x72x24_baltic_128.bin
(PID.TID 0000.0001)  MDSREADFIELDXZ: opening global file: OBN_ZOO1Fe_76x72x24_baltic_128.bin
(PID.TID 0000.0001)  MDSREADFIELDXZ: opening global file: OBN_ZOO1Si_76x72x24_baltic_128.bin
(PID.TID 0000.0001)  MDSREADFIELDXZ: opening global file: OBN_ZOO1Si_76x72x24_baltic_128.bin
(PID.TID 0000.0001)  MDSREADFIELDXZ: opening global file: OBN_ZOO2P_76x72x24_baltic_128.bin
(PID.TID 0000.0001)  MDSREADFIELDXZ: opening global file: OBN_ZOO2P_76x72x24_baltic_128.bin
(PID.TID 0000.0001)  MDSREADFIELDXZ: opening global file: OBN_ZOO2N_76x72x24_baltic_128.bin
(PID.TID 0000.0001)  MDSREADFIELDXZ: opening global file: OBN_ZOO2N_76x72x24_baltic_128.bin
(PID.TID 0000.0001)  MDSREADFIELDXZ: opening global file: OBN_ZOO2Fe_76x72x24_baltic_128.bin
(PID.TID 0000.0001)  MDSREADFIELDXZ: opening global file: OBN_ZOO2Fe_76x72x24_baltic_128.bin
(PID.TID 0000.0001)  MDSREADFIELDXZ: opening global file: OBN_ZOO2Si_76x72x24_baltic_128.bin
(PID.TID 0000.0001)  MDSREADFIELDXZ: opening global file: OBN_ZOO2Si_76x72x24_baltic_128.bin
(PID.TID 0000.0001)  MDSREADFIELDXZ: opening global file: OBN_POP_76x72x24_baltic_128.bin
(PID.TID 0000.0001)  MDSREADFIELDXZ: opening global file: OBN_POP_76x72x24_baltic_128.bin
(PID.TID 0000.0001)  MDSREADFIELDXZ: opening global file: OBN_PON_76x72x24_baltic_128.bin
(PID.TID 0000.0001)  MDSREADFIELDXZ: opening global file: OBN_PON_76x72x24_baltic_128.bin
(PID.TID 0000.0001)  MDSREADFIELDXZ: opening global file: OBN_POFe_76x72x24_baltic_128.bin
(PID.TID 0000.0001)  MDSREADFIELDXZ: opening global file: OBN_POFe_76x72x24_baltic_128.bin
(PID.TID 0000.0001)  MDSREADFIELDXZ: opening global file: OBN_POSi_76x72x24_baltic_128.bin
(PID.TID 0000.0001)  MDSREADFIELDXZ: opening global file: OBN_POSi_76x72x24_baltic_128.bin
(PID.TID 0000.0001)  MDSREADFIELDXZ: opening global file: OBN_NH4_76x72x24_baltic_128.bin
(PID.TID 0000.0001)  MDSREADFIELDXZ: opening global file: OBN_NH4_76x72x24_baltic_128.bin
(PID.TID 0000.0001)  MDSREADFIELDXZ: opening global file: OBN_NO2_76x72x24_baltic_128.bin
(PID.TID 0000.0001)  MDSREADFIELDXZ: opening global file: OBN_NO2_76x72x24_baltic_128.bin
(PID.TID 0000.0001)  MDSREADFIELDXZ: opening global file: OBN_Phy01_76x72x24_baltic_128.bin
(PID.TID 0000.0001)  MDSREADFIELDXZ: opening global file: OBN_Phy01_76x72x24_baltic_128.bin
(PID.TID 0000.0001)  MDSREADFIELDXZ: opening global file: OBN_Phy02_76x72x24_baltic_128.bin
(PID.TID 0000.0001)  MDSREADFIELDXZ: opening global file: OBN_Phy02_76x72x24_baltic_128.bin
(PID.TID 0000.0001)  MDSREADFIELDXZ: opening global file: OBN_Phy03_76x72x24_baltic_128.bin
(PID.TID 0000.0001)  MDSREADFIELDXZ: opening global file: OBN_Phy03_76x72x24_baltic_128.bin
(PID.TID 0000.0001)  MDSREADFIELDXZ: opening global file: OBN_Phy04_76x72x24_baltic_128.bin
(PID.TID 0000.0001)  MDSREADFIELDXZ: opening global file: OBN_Phy04_76x72x24_baltic_128.bin
(PID.TID 0000.0001)  MDSREADFIELDXZ: opening global file: OBN_Phy05_76x72x24_baltic_128.bin
(PID.TID 0000.0001)  MDSREADFIELDXZ: opening global file: OBN_Phy05_76x72x24_baltic_128.bin
(PID.TID 0000.0001)  MDSREADFIELDXZ: opening global file: OBN_Phy06_76x72x24_baltic_128.bin
(PID.TID 0000.0001)  MDSREADFIELDXZ: opening global file: OBN_Phy06_76x72x24_baltic_128.bin
(PID.TID 0000.0001)  MDSREADFIELDXZ: opening global file: OBN_Phy07_76x72x24_baltic_128.bin
(PID.TID 0000.0001)  MDSREADFIELDXZ: opening global file: OBN_Phy07_76x72x24_baltic_128.bin
(PID.TID 0000.0001)  MDSREADFIELDXZ: opening global file: OBN_Phy08_76x72x24_baltic_128.bin
(PID.TID 0000.0001)  MDSREADFIELDXZ: opening global file: OBN_Phy08_76x72x24_baltic_128.bin
(PID.TID 0000.0001)  MDSREADFIELDXZ: opening global file: OBN_Phy09_76x72x24_baltic_128.bin
(PID.TID 0000.0001)  MDSREADFIELDXZ: opening global file: OBN_Phy09_76x72x24_baltic_128.bin
(PID.TID 0000.0001)  MDSREADFIELDXZ: opening global file: OBN_Phy10_76x72x24_baltic_128.bin
(PID.TID 0000.0001)  MDSREADFIELDXZ: opening global file: OBN_Phy10_76x72x24_baltic_128.bin
(PID.TID 0000.0001)  MDSREADFIELDXZ: opening global file: OBN_Phy11_76x72x24_baltic_128.bin
(PID.TID 0000.0001)  MDSREADFIELDXZ: opening global file: OBN_Phy11_76x72x24_baltic_128.bin
(PID.TID 0000.0001)  MDSREADFIELDXZ: opening global file: OBN_Phy12_76x72x24_baltic_128.bin
(PID.TID 0000.0001)  MDSREADFIELDXZ: opening global file: OBN_Phy12_76x72x24_baltic_128.bin
(PID.TID 0000.0001)  MDSREADFIELDXZ: opening global file: OBN_Phy13_76x72x24_baltic_128.bin
(PID.TID 0000.0001)  MDSREADFIELDXZ: opening global file: OBN_Phy13_76x72x24_baltic_128.bin
(PID.TID 0000.0001)  MDSREADFIELDXZ: opening global file: OBN_Phy14_76x72x24_baltic_128.bin
(PID.TID 0000.0001)  MDSREADFIELDXZ: opening global file: OBN_Phy14_76x72x24_baltic_128.bin
(PID.TID 0000.0001)  MDSREADFIELDXZ: opening global file: OBN_Phy15_76x72x24_baltic_128.bin
(PID.TID 0000.0001)  MDSREADFIELDXZ: opening global file: OBN_Phy15_76x72x24_baltic_128.bin
(PID.TID 0000.0001)  MDSREADFIELDXZ: opening global file: OBN_Phy16_76x72x24_baltic_128.bin
(PID.TID 0000.0001)  MDSREADFIELDXZ: opening global file: OBN_Phy16_76x72x24_baltic_128.bin
(PID.TID 0000.0001)  MDSREADFIELDXZ: opening global file: OBN_Phy17_76x72x24_baltic_128.bin
(PID.TID 0000.0001)  MDSREADFIELDXZ: opening global file: OBN_Phy17_76x72x24_baltic_128.bin
(PID.TID 0000.0001)  MDSREADFIELDXZ: opening global file: OBN_Phy18_76x72x24_baltic_128.bin
(PID.TID 0000.0001)  MDSREADFIELDXZ: opening global file: OBN_Phy18_76x72x24_baltic_128.bin
(PID.TID 0000.0001)  MDSREADFIELDXZ: opening global file: OBN_Phy19_76x72x24_baltic_128.bin
(PID.TID 0000.0001)  MDSREADFIELDXZ: opening global file: OBN_Phy19_76x72x24_baltic_128.bin
(PID.TID 0000.0001)  MDSREADFIELDXZ: opening global file: OBN_Phy20_76x72x24_baltic_128.bin
(PID.TID 0000.0001)  MDSREADFIELDXZ: opening global file: OBN_Phy20_76x72x24_baltic_128.bin
(PID.TID 0000.0001)  MDSREADFIELDXZ: opening global file: OBN_Phy21_76x72x24_baltic_128.bin
(PID.TID 0000.0001)  MDSREADFIELDXZ: opening global file: OBN_Phy21_76x72x24_baltic_128.bin
(PID.TID 0000.0001)  MDSREADFIELDXZ: opening global file: OBN_Phy22_76x72x24_baltic_128.bin
(PID.TID 0000.0001)  MDSREADFIELDXZ: opening global file: OBN_Phy22_76x72x24_baltic_128.bin
(PID.TID 0000.0001)  MDSREADFIELDXZ: opening global file: OBN_Phy23_76x72x24_baltic_128.bin
(PID.TID 0000.0001)  MDSREADFIELDXZ: opening global file: OBN_Phy23_76x72x24_baltic_128.bin
(PID.TID 0000.0001)  MDSREADFIELDXZ: opening global file: OBN_Phy24_76x72x24_baltic_128.bin
(PID.TID 0000.0001)  MDSREADFIELDXZ: opening global file: OBN_Phy24_76x72x24_baltic_128.bin
(PID.TID 0000.0001)  MDSREADFIELDXZ: opening global file: OBN_Phy25_76x72x24_baltic_128.bin
(PID.TID 0000.0001)  MDSREADFIELDXZ: opening global file: OBN_Phy25_76x72x24_baltic_128.bin
(PID.TID 0000.0001)  MDSREADFIELDXZ: opening global file: OBN_Phy26_76x72x24_baltic_128.bin
(PID.TID 0000.0001)  MDSREADFIELDXZ: opening global file: OBN_Phy26_76x72x24_baltic_128.bin
(PID.TID 0000.0001)  MDSREADFIELDXZ: opening global file: OBN_Phy27_76x72x24_baltic_128.bin
(PID.TID 0000.0001)  MDSREADFIELDXZ: opening global file: OBN_Phy27_76x72x24_baltic_128.bin
(PID.TID 0000.0001)  MDSREADFIELDXZ: opening global file: OBN_Phy28_76x72x24_baltic_128.bin
(PID.TID 0000.0001)  MDSREADFIELDXZ: opening global file: OBN_Phy28_76x72x24_baltic_128.bin
(PID.TID 0000.0001)  MDSREADFIELDXZ: opening global file: OBN_Phy29_76x72x24_baltic_128.bin
(PID.TID 0000.0001)  MDSREADFIELDXZ: opening global file: OBN_Phy29_76x72x24_baltic_128.bin
(PID.TID 0000.0001)  MDSREADFIELDXZ: opening global file: OBN_Phy30_76x72x24_baltic_128.bin
(PID.TID 0000.0001)  MDSREADFIELDXZ: opening global file: OBN_Phy30_76x72x24_baltic_128.bin
(PID.TID 0000.0001)  MDSREADFIELDXZ: opening global file: OBN_Phy31_76x72x24_baltic_128.bin
(PID.TID 0000.0001)  MDSREADFIELDXZ: opening global file: OBN_Phy31_76x72x24_baltic_128.bin
(PID.TID 0000.0001)  MDSREADFIELDXZ: opening global file: OBN_Phy32_76x72x24_baltic_128.bin
(PID.TID 0000.0001)  MDSREADFIELDXZ: opening global file: OBN_Phy32_76x72x24_baltic_128.bin
(PID.TID 0000.0001)  MDSREADFIELDXZ: opening global file: OBN_Phy33_76x72x24_baltic_128.bin
(PID.TID 0000.0001)  MDSREADFIELDXZ: opening global file: OBN_Phy33_76x72x24_baltic_128.bin
(PID.TID 0000.0001)  MDSREADFIELDXZ: opening global file: OBN_Phy34_76x72x24_baltic_128.bin
(PID.TID 0000.0001)  MDSREADFIELDXZ: opening global file: OBN_Phy34_76x72x24_baltic_128.bin
(PID.TID 0000.0001)  MDSREADFIELDXZ: opening global file: OBN_Phy35_76x72x24_baltic_128.bin
(PID.TID 0000.0001)  MDSREADFIELDXZ: opening global file: OBN_Phy35_76x72x24_baltic_128.bin
(PID.TID 0000.0001)  MDSREADFIELDXZ: opening global file: OBN_Phy36_76x72x24_baltic_128.bin
(PID.TID 0000.0001)  MDSREADFIELDXZ: opening global file: OBN_Phy36_76x72x24_baltic_128.bin
(PID.TID 0000.0001)  MDSREADFIELDXZ: opening global file: OBN_Phy37_76x72x24_baltic_128.bin
(PID.TID 0000.0001)  MDSREADFIELDXZ: opening global file: OBN_Phy37_76x72x24_baltic_128.bin
(PID.TID 0000.0001)  MDSREADFIELDXZ: opening global file: OBN_Phy38_76x72x24_baltic_128.bin
(PID.TID 0000.0001)  MDSREADFIELDXZ: opening global file: OBN_Phy38_76x72x24_baltic_128.bin
(PID.TID 0000.0001)  MDSREADFIELDXZ: opening global file: OBN_Phy39_76x72x24_baltic_128.bin
(PID.TID 0000.0001)  MDSREADFIELDXZ: opening global file: OBN_Phy39_76x72x24_baltic_128.bin
(PID.TID 0000.0001)  MDSREADFIELDXZ: opening global file: OBN_Phy40_76x72x24_baltic_128.bin
(PID.TID 0000.0001)  MDSREADFIELDXZ: opening global file: OBN_Phy40_76x72x24_baltic_128.bin
(PID.TID 0000.0001)  MDSREADFIELDXZ: opening global file: OBN_Phy41_76x72x24_baltic_128.bin
(PID.TID 0000.0001)  MDSREADFIELDXZ: opening global file: OBN_Phy41_76x72x24_baltic_128.bin
(PID.TID 0000.0001)  MDSREADFIELDXZ: opening global file: OBN_Phy42_76x72x24_baltic_128.bin
(PID.TID 0000.0001)  MDSREADFIELDXZ: opening global file: OBN_Phy42_76x72x24_baltic_128.bin
(PID.TID 0000.0001)  MDSREADFIELDXZ: opening global file: OBN_Phy43_76x72x24_baltic_128.bin
(PID.TID 0000.0001)  MDSREADFIELDXZ: opening global file: OBN_Phy43_76x72x24_baltic_128.bin
(PID.TID 0000.0001)  MDSREADFIELDXZ: opening global file: OBN_Phy44_76x72x24_baltic_128.bin
(PID.TID 0000.0001)  MDSREADFIELDXZ: opening global file: OBN_Phy44_76x72x24_baltic_128.bin
(PID.TID 0000.0001)  MDSREADFIELDXZ: opening global file: OBN_Phy45_76x72x24_baltic_128.bin
(PID.TID 0000.0001)  MDSREADFIELDXZ: opening global file: OBN_Phy45_76x72x24_baltic_128.bin
(PID.TID 0000.0001)  MDSREADFIELDXZ: opening global file: OBN_Phy46_76x72x24_baltic_128.bin
(PID.TID 0000.0001)  MDSREADFIELDXZ: opening global file: OBN_Phy46_76x72x24_baltic_128.bin
(PID.TID 0000.0001)  MDSREADFIELDXZ: opening global file: OBN_Phy47_76x72x24_baltic_128.bin
(PID.TID 0000.0001)  MDSREADFIELDXZ: opening global file: OBN_Phy47_76x72x24_baltic_128.bin
(PID.TID 0000.0001)  MDSREADFIELDXZ: opening global file: OBN_Phy48_76x72x24_baltic_128.bin
(PID.TID 0000.0001)  MDSREADFIELDXZ: opening global file: OBN_Phy48_76x72x24_baltic_128.bin
(PID.TID 0000.0001)  MDSREADFIELDXZ: opening global file: OBN_Phy49_76x72x24_baltic_128.bin
(PID.TID 0000.0001)  MDSREADFIELDXZ: opening global file: OBN_Phy49_76x72x24_baltic_128.bin
(PID.TID 0000.0001)  MDSREADFIELDXZ: opening global file: OBN_Phy50_76x72x24_baltic_128.bin
(PID.TID 0000.0001)  MDSREADFIELDXZ: opening global file: OBN_Phy50_76x72x24_baltic_128.bin
(PID.TID 0000.0001)  MDSREADFIELDXZ: opening global file: OBN_Phy51_76x72x24_baltic_128.bin
(PID.TID 0000.0001)  MDSREADFIELDXZ: opening global file: OBN_Phy51_76x72x24_baltic_128.bin
(PID.TID 0000.0001)  MDSREADFIELDXZ: opening global file: OBN_Phy52_76x72x24_baltic_128.bin
(PID.TID 0000.0001)  MDSREADFIELDXZ: opening global file: OBN_Phy52_76x72x24_baltic_128.bin
(PID.TID 0000.0001)  MDSREADFIELDXZ: opening global file: OBN_Phy53_76x72x24_baltic_128.bin
(PID.TID 0000.0001)  MDSREADFIELDXZ: opening global file: OBN_Phy53_76x72x24_baltic_128.bin
(PID.TID 0000.0001)  MDSREADFIELDXZ: opening global file: OBN_Phy54_76x72x24_baltic_128.bin
(PID.TID 0000.0001)  MDSREADFIELDXZ: opening global file: OBN_Phy54_76x72x24_baltic_128.bin
(PID.TID 0000.0001)  MDSREADFIELDXZ: opening global file: OBN_Phy55_76x72x24_baltic_128.bin
(PID.TID 0000.0001)  MDSREADFIELDXZ: opening global file: OBN_Phy55_76x72x24_baltic_128.bin
(PID.TID 0000.0001)  MDSREADFIELDXZ: opening global file: OBN_Phy56_76x72x24_baltic_128.bin
(PID.TID 0000.0001)  MDSREADFIELDXZ: opening global file: OBN_Phy56_76x72x24_baltic_128.bin
(PID.TID 0000.0001)  MDSREADFIELDXZ: opening global file: OBN_Phy57_76x72x24_baltic_128.bin
(PID.TID 0000.0001)  MDSREADFIELDXZ: opening global file: OBN_Phy57_76x72x24_baltic_128.bin
(PID.TID 0000.0001)  MDSREADFIELDXZ: opening global file: OBN_Phy58_76x72x24_baltic_128.bin
(PID.TID 0000.0001)  MDSREADFIELDXZ: opening global file: OBN_Phy58_76x72x24_baltic_128.bin
(PID.TID 0000.0001)  MDSREADFIELDXZ: opening global file: OBN_Phy59_76x72x24_baltic_128.bin
(PID.TID 0000.0001)  MDSREADFIELDXZ: opening global file: OBN_Phy59_76x72x24_baltic_128.bin
(PID.TID 0000.0001)  MDSREADFIELDXZ: opening global file: OBN_Phy60_76x72x24_baltic_128.bin
(PID.TID 0000.0001)  MDSREADFIELDXZ: opening global file: OBN_Phy60_76x72x24_baltic_128.bin
(PID.TID 0000.0001)  MDSREADFIELDXZ: opening global file: OBN_Phy61_76x72x24_baltic_128.bin
(PID.TID 0000.0001)  MDSREADFIELDXZ: opening global file: OBN_Phy61_76x72x24_baltic_128.bin
(PID.TID 0000.0001)  MDSREADFIELDXZ: opening global file: OBN_Phy62_76x72x24_baltic_128.bin
(PID.TID 0000.0001)  MDSREADFIELDXZ: opening global file: OBN_Phy62_76x72x24_baltic_128.bin
(PID.TID 0000.0001)  MDSREADFIELDXZ: opening global file: OBN_Phy63_76x72x24_baltic_128.bin
(PID.TID 0000.0001)  MDSREADFIELDXZ: opening global file: OBN_Phy63_76x72x24_baltic_128.bin
(PID.TID 0000.0001)  MDSREADFIELDXZ: opening global file: OBN_Phy64_76x72x24_baltic_128.bin
(PID.TID 0000.0001)  MDSREADFIELDXZ: opening global file: OBN_Phy64_76x72x24_baltic_128.bin
(PID.TID 0000.0001)  MDSREADFIELDXZ: opening global file: OBN_Phy65_76x72x24_baltic_128.bin
(PID.TID 0000.0001)  MDSREADFIELDXZ: opening global file: OBN_Phy65_76x72x24_baltic_128.bin
(PID.TID 0000.0001)  MDSREADFIELDXZ: opening global file: OBN_Phy66_76x72x24_baltic_128.bin
(PID.TID 0000.0001)  MDSREADFIELDXZ: opening global file: OBN_Phy66_76x72x24_baltic_128.bin
(PID.TID 0000.0001)  MDSREADFIELDXZ: opening global file: OBN_Phy67_76x72x24_baltic_128.bin
(PID.TID 0000.0001)  MDSREADFIELDXZ: opening global file: OBN_Phy67_76x72x24_baltic_128.bin
(PID.TID 0000.0001)  MDSREADFIELDXZ: opening global file: OBN_Phy68_76x72x24_baltic_128.bin
(PID.TID 0000.0001)  MDSREADFIELDXZ: opening global file: OBN_Phy68_76x72x24_baltic_128.bin
(PID.TID 0000.0001)  MDSREADFIELDXZ: opening global file: OBN_Phy69_76x72x24_baltic_128.bin
(PID.TID 0000.0001)  MDSREADFIELDXZ: opening global file: OBN_Phy69_76x72x24_baltic_128.bin
(PID.TID 0000.0001)  MDSREADFIELDXZ: opening global file: OBN_Phy70_76x72x24_baltic_128.bin
(PID.TID 0000.0001)  MDSREADFIELDXZ: opening global file: OBN_Phy70_76x72x24_baltic_128.bin
(PID.TID 0000.0001)  MDSREADFIELDXZ: opening global file: OBN_Phy71_76x72x24_baltic_128.bin
(PID.TID 0000.0001)  MDSREADFIELDXZ: opening global file: OBN_Phy71_76x72x24_baltic_128.bin
(PID.TID 0000.0001)  MDSREADFIELDXZ: opening global file: OBN_Phy72_76x72x24_baltic_128.bin
(PID.TID 0000.0001)  MDSREADFIELDXZ: opening global file: OBN_Phy72_76x72x24_baltic_128.bin
(PID.TID 0000.0001)  MDSREADFIELDXZ: opening global file: OBN_Phy73_76x72x24_baltic_128.bin
(PID.TID 0000.0001)  MDSREADFIELDXZ: opening global file: OBN_Phy73_76x72x24_baltic_128.bin
(PID.TID 0000.0001)  MDSREADFIELDXZ: opening global file: OBN_Phy74_76x72x24_baltic_128.bin
(PID.TID 0000.0001)  MDSREADFIELDXZ: opening global file: OBN_Phy74_76x72x24_baltic_128.bin
(PID.TID 0000.0001)  MDSREADFIELDXZ: opening global file: OBN_Phy75_76x72x24_baltic_128.bin
(PID.TID 0000.0001)  MDSREADFIELDXZ: opening global file: OBN_Phy75_76x72x24_baltic_128.bin
(PID.TID 0000.0001)  MDSREADFIELDXZ: opening global file: OBN_Phy76_76x72x24_baltic_128.bin
(PID.TID 0000.0001)  MDSREADFIELDXZ: opening global file: OBN_Phy76_76x72x24_baltic_128.bin
(PID.TID 0000.0001)  MDSREADFIELDXZ: opening global file: OBN_Phy77_76x72x24_baltic_128.bin
(PID.TID 0000.0001)  MDSREADFIELDXZ: opening global file: OBN_Phy77_76x72x24_baltic_128.bin
(PID.TID 0000.0001)  MDSREADFIELDXZ: opening global file: OBN_Phy78_76x72x24_baltic_128.bin
(PID.TID 0000.0001)  MDSREADFIELDXZ: opening global file: OBN_Phy78_76x72x24_baltic_128.bin
(PID.TID 0000.0001)  MDSREADFIELDYZ: opening global file: OBWu_baltic_76x72.bin
(PID.TID 0000.0001)  MDSREADFIELDYZ: opening global file: OBWu_baltic_76x72.bin
(PID.TID 0000.0001)  MDSREADFIELDYZ: opening global file: OBWv_baltic_76x72.bin
(PID.TID 0000.0001)  MDSREADFIELDYZ: opening global file: OBWv_baltic_76x72.bin
(PID.TID 0000.0001)  MDSREADFIELDYZ: opening global file: OBWt_baltic_76x72.stable
(PID.TID 0000.0001)  MDSREADFIELDYZ: opening global file: OBWt_baltic_76x72.stable
(PID.TID 0000.0001)  MDSREADFIELDYZ: opening global file: OBWs_baltic_76x72.stable
(PID.TID 0000.0001)  MDSREADFIELDYZ: opening global file: OBWs_baltic_76x72.stable
(PID.TID 0000.0001)  MDSREADFIELDYZ: opening global file: OBW_PO4_76x72x24_baltic_128.bin
(PID.TID 0000.0001)  MDSREADFIELDYZ: opening global file: OBW_PO4_76x72x24_baltic_128.bin
(PID.TID 0000.0001)  MDSREADFIELDYZ: opening global file: OBW_NO3_76x72x24_baltic_128.bin
(PID.TID 0000.0001)  MDSREADFIELDYZ: opening global file: OBW_NO3_76x72x24_baltic_128.bin
(PID.TID 0000.0001)  MDSREADFIELDYZ: opening global file: OBW_FeT_76x72x24_baltic_128.bin
(PID.TID 0000.0001)  MDSREADFIELDYZ: opening global file: OBW_FeT_76x72x24_baltic_128.bin
(PID.TID 0000.0001)  MDSREADFIELDYZ: opening global file: OBW_SiO2_76x72x24_baltic_128.bin
(PID.TID 0000.0001)  MDSREADFIELDYZ: opening global file: OBW_SiO2_76x72x24_baltic_128.bin
(PID.TID 0000.0001)  MDSREADFIELDYZ: opening global file: OBW_DOP_76x72x24_baltic_128.bin
(PID.TID 0000.0001)  MDSREADFIELDYZ: opening global file: OBW_DOP_76x72x24_baltic_128.bin
(PID.TID 0000.0001)  MDSREADFIELDYZ: opening global file: OBW_DON_76x72x24_baltic_128.bin
(PID.TID 0000.0001)  MDSREADFIELDYZ: opening global file: OBW_DON_76x72x24_baltic_128.bin
(PID.TID 0000.0001)  MDSREADFIELDYZ: opening global file: OBW_DOFe_76x72x24_baltic_128.bin
(PID.TID 0000.0001)  MDSREADFIELDYZ: opening global file: OBW_DOFe_76x72x24_baltic_128.bin
(PID.TID 0000.0001)  MDSREADFIELDYZ: opening global file: OBW_ZOO1P_76x72x24_baltic_128.bin
(PID.TID 0000.0001)  MDSREADFIELDYZ: opening global file: OBW_ZOO1P_76x72x24_baltic_128.bin
(PID.TID 0000.0001)  MDSREADFIELDYZ: opening global file: OBW_ZOO1N_76x72x24_baltic_128.bin
(PID.TID 0000.0001)  MDSREADFIELDYZ: opening global file: OBW_ZOO1N_76x72x24_baltic_128.bin
(PID.TID 0000.0001)  MDSREADFIELDYZ: opening global file: OBW_ZOO1Fe_76x72x24_baltic_128.bin
(PID.TID 0000.0001)  MDSREADFIELDYZ: opening global file: OBW_ZOO1Fe_76x72x24_baltic_128.bin
(PID.TID 0000.0001)  MDSREADFIELDYZ: opening global file: OBW_ZOO1Si_76x72x24_baltic_128.bin
(PID.TID 0000.0001)  MDSREADFIELDYZ: opening global file: OBW_ZOO1Si_76x72x24_baltic_128.bin
(PID.TID 0000.0001)  MDSREADFIELDYZ: opening global file: OBW_ZOO2P_76x72x24_baltic_128.bin
(PID.TID 0000.0001)  MDSREADFIELDYZ: opening global file: OBW_ZOO2P_76x72x24_baltic_128.bin
(PID.TID 0000.0001)  MDSREADFIELDYZ: opening global file: OBW_ZOO2N_76x72x24_baltic_128.bin
(PID.TID 0000.0001)  MDSREADFIELDYZ: opening global file: OBW_ZOO2N_76x72x24_baltic_128.bin
(PID.TID 0000.0001)  MDSREADFIELDYZ: opening global file: OBW_ZOO2Fe_76x72x24_baltic_128.bin
(PID.TID 0000.0001)  MDSREADFIELDYZ: opening global file: OBW_ZOO2Fe_76x72x24_baltic_128.bin
(PID.TID 0000.0001)  MDSREADFIELDYZ: opening global file: OBW_ZOO2Si_76x72x24_baltic_128.bin
(PID.TID 0000.0001)  MDSREADFIELDYZ: opening global file: OBW_ZOO2Si_76x72x24_baltic_128.bin
(PID.TID 0000.0001)  MDSREADFIELDYZ: opening global file: OBW_POP_76x72x24_baltic_128.bin
(PID.TID 0000.0001)  MDSREADFIELDYZ: opening global file: OBW_POP_76x72x24_baltic_128.bin
(PID.TID 0000.0001)  MDSREADFIELDYZ: opening global file: OBW_PON_76x72x24_baltic_128.bin
(PID.TID 0000.0001)  MDSREADFIELDYZ: opening global file: OBW_PON_76x72x24_baltic_128.bin
(PID.TID 0000.0001)  MDSREADFIELDYZ: opening global file: OBW_POFe_76x72x24_baltic_128.bin
(PID.TID 0000.0001)  MDSREADFIELDYZ: opening global file: OBW_POFe_76x72x24_baltic_128.bin
(PID.TID 0000.0001)  MDSREADFIELDYZ: opening global file: OBW_POSi_76x72x24_baltic_128.bin
(PID.TID 0000.0001)  MDSREADFIELDYZ: opening global file: OBW_POSi_76x72x24_baltic_128.bin
(PID.TID 0000.0001)  MDSREADFIELDYZ: opening global file: OBW_NH4_76x72x24_baltic_128.bin
(PID.TID 0000.0001)  MDSREADFIELDYZ: opening global file: OBW_NH4_76x72x24_baltic_128.bin
(PID.TID 0000.0001)  MDSREADFIELDYZ: opening global file: OBW_NO2_76x72x24_baltic_128.bin
(PID.TID 0000.0001)  MDSREADFIELDYZ: opening global file: OBW_NO2_76x72x24_baltic_128.bin
(PID.TID 0000.0001)  MDSREADFIELDYZ: opening global file: OBW_Phy01_76x72x24_baltic_128.bin
(PID.TID 0000.0001)  MDSREADFIELDYZ: opening global file: OBW_Phy01_76x72x24_baltic_128.bin
(PID.TID 0000.0001)  MDSREADFIELDYZ: opening global file: OBW_Phy02_76x72x24_baltic_128.bin
(PID.TID 0000.0001)  MDSREADFIELDYZ: opening global file: OBW_Phy02_76x72x24_baltic_128.bin
(PID.TID 0000.0001)  MDSREADFIELDYZ: opening global file: OBW_Phy03_76x72x24_baltic_128.bin
(PID.TID 0000.0001)  MDSREADFIELDYZ: opening global file: OBW_Phy03_76x72x24_baltic_128.bin
(PID.TID 0000.0001)  MDSREADFIELDYZ: opening global file: OBW_Phy04_76x72x24_baltic_128.bin
(PID.TID 0000.0001)  MDSREADFIELDYZ: opening global file: OBW_Phy04_76x72x24_baltic_128.bin
(PID.TID 0000.0001)  MDSREADFIELDYZ: opening global file: OBW_Phy05_76x72x24_baltic_128.bin
(PID.TID 0000.0001)  MDSREADFIELDYZ: opening global file: OBW_Phy05_76x72x24_baltic_128.bin
(PID.TID 0000.0001)  MDSREADFIELDYZ: opening global file: OBW_Phy06_76x72x24_baltic_128.bin
(PID.TID 0000.0001)  MDSREADFIELDYZ: opening global file: OBW_Phy06_76x72x24_baltic_128.bin
(PID.TID 0000.0001)  MDSREADFIELDYZ: opening global file: OBW_Phy07_76x72x24_baltic_128.bin
(PID.TID 0000.0001)  MDSREADFIELDYZ: opening global file: OBW_Phy07_76x72x24_baltic_128.bin
(PID.TID 0000.0001)  MDSREADFIELDYZ: opening global file: OBW_Phy08_76x72x24_baltic_128.bin
(PID.TID 0000.0001)  MDSREADFIELDYZ: opening global file: OBW_Phy08_76x72x24_baltic_128.bin
(PID.TID 0000.0001)  MDSREADFIELDYZ: opening global file: OBW_Phy09_76x72x24_baltic_128.bin
(PID.TID 0000.0001)  MDSREADFIELDYZ: opening global file: OBW_Phy09_76x72x24_baltic_128.bin
(PID.TID 0000.0001)  MDSREADFIELDYZ: opening global file: OBW_Phy10_76x72x24_baltic_128.bin
(PID.TID 0000.0001)  MDSREADFIELDYZ: opening global file: OBW_Phy10_76x72x24_baltic_128.bin
(PID.TID 0000.0001)  MDSREADFIELDYZ: opening global file: OBW_Phy11_76x72x24_baltic_128.bin
(PID.TID 0000.0001)  MDSREADFIELDYZ: opening global file: OBW_Phy11_76x72x24_baltic_128.bin
(PID.TID 0000.0001)  MDSREADFIELDYZ: opening global file: OBW_Phy12_76x72x24_baltic_128.bin
(PID.TID 0000.0001)  MDSREADFIELDYZ: opening global file: OBW_Phy12_76x72x24_baltic_128.bin
(PID.TID 0000.0001)  MDSREADFIELDYZ: opening global file: OBW_Phy13_76x72x24_baltic_128.bin
(PID.TID 0000.0001)  MDSREADFIELDYZ: opening global file: OBW_Phy13_76x72x24_baltic_128.bin
(PID.TID 0000.0001)  MDSREADFIELDYZ: opening global file: OBW_Phy14_76x72x24_baltic_128.bin
(PID.TID 0000.0001)  MDSREADFIELDYZ: opening global file: OBW_Phy14_76x72x24_baltic_128.bin
(PID.TID 0000.0001)  MDSREADFIELDYZ: opening global file: OBW_Phy15_76x72x24_baltic_128.bin
(PID.TID 0000.0001)  MDSREADFIELDYZ: opening global file: OBW_Phy15_76x72x24_baltic_128.bin
(PID.TID 0000.0001)  MDSREADFIELDYZ: opening global file: OBW_Phy16_76x72x24_baltic_128.bin
(PID.TID 0000.0001)  MDSREADFIELDYZ: opening global file: OBW_Phy16_76x72x24_baltic_128.bin
(PID.TID 0000.0001)  MDSREADFIELDYZ: opening global file: OBW_Phy17_76x72x24_baltic_128.bin
(PID.TID 0000.0001)  MDSREADFIELDYZ: opening global file: OBW_Phy17_76x72x24_baltic_128.bin
(PID.TID 0000.0001)  MDSREADFIELDYZ: opening global file: OBW_Phy18_76x72x24_baltic_128.bin
(PID.TID 0000.0001)  MDSREADFIELDYZ: opening global file: OBW_Phy18_76x72x24_baltic_128.bin
(PID.TID 0000.0001)  MDSREADFIELDYZ: opening global file: OBW_Phy19_76x72x24_baltic_128.bin
(PID.TID 0000.0001)  MDSREADFIELDYZ: opening global file: OBW_Phy19_76x72x24_baltic_128.bin
(PID.TID 0000.0001)  MDSREADFIELDYZ: opening global file: OBW_Phy20_76x72x24_baltic_128.bin
(PID.TID 0000.0001)  MDSREADFIELDYZ: opening global file: OBW_Phy20_76x72x24_baltic_128.bin
(PID.TID 0000.0001)  MDSREADFIELDYZ: opening global file: OBW_Phy21_76x72x24_baltic_128.bin
(PID.TID 0000.0001)  MDSREADFIELDYZ: opening global file: OBW_Phy21_76x72x24_baltic_128.bin
(PID.TID 0000.0001)  MDSREADFIELDYZ: opening global file: OBW_Phy22_76x72x24_baltic_128.bin
(PID.TID 0000.0001)  MDSREADFIELDYZ: opening global file: OBW_Phy22_76x72x24_baltic_128.bin
(PID.TID 0000.0001)  MDSREADFIELDYZ: opening global file: OBW_Phy23_76x72x24_baltic_128.bin
(PID.TID 0000.0001)  MDSREADFIELDYZ: opening global file: OBW_Phy23_76x72x24_baltic_128.bin
(PID.TID 0000.0001)  MDSREADFIELDYZ: opening global file: OBW_Phy24_76x72x24_baltic_128.bin
(PID.TID 0000.0001)  MDSREADFIELDYZ: opening global file: OBW_Phy24_76x72x24_baltic_128.bin
(PID.TID 0000.0001)  MDSREADFIELDYZ: opening global file: OBW_Phy25_76x72x24_baltic_128.bin
(PID.TID 0000.0001)  MDSREADFIELDYZ: opening global file: OBW_Phy25_76x72x24_baltic_128.bin
(PID.TID 0000.0001)  MDSREADFIELDYZ: opening global file: OBW_Phy26_76x72x24_baltic_128.bin
(PID.TID 0000.0001)  MDSREADFIELDYZ: opening global file: OBW_Phy26_76x72x24_baltic_128.bin
(PID.TID 0000.0001)  MDSREADFIELDYZ: opening global file: OBW_Phy27_76x72x24_baltic_128.bin
(PID.TID 0000.0001)  MDSREADFIELDYZ: opening global file: OBW_Phy27_76x72x24_baltic_128.bin
(PID.TID 0000.0001)  MDSREADFIELDYZ: opening global file: OBW_Phy28_76x72x24_baltic_128.bin
(PID.TID 0000.0001)  MDSREADFIELDYZ: opening global file: OBW_Phy28_76x72x24_baltic_128.bin
(PID.TID 0000.0001)  MDSREADFIELDYZ: opening global file: OBW_Phy29_76x72x24_baltic_128.bin
(PID.TID 0000.0001)  MDSREADFIELDYZ: opening global file: OBW_Phy29_76x72x24_baltic_128.bin
(PID.TID 0000.0001)  MDSREADFIELDYZ: opening global file: OBW_Phy30_76x72x24_baltic_128.bin
(PID.TID 0000.0001)  MDSREADFIELDYZ: opening global file: OBW_Phy30_76x72x24_baltic_128.bin
(PID.TID 0000.0001)  MDSREADFIELDYZ: opening global file: OBW_Phy31_76x72x24_baltic_128.bin
(PID.TID 0000.0001)  MDSREADFIELDYZ: opening global file: OBW_Phy31_76x72x24_baltic_128.bin
(PID.TID 0000.0001)  MDSREADFIELDYZ: opening global file: OBW_Phy32_76x72x24_baltic_128.bin
(PID.TID 0000.0001)  MDSREADFIELDYZ: opening global file: OBW_Phy32_76x72x24_baltic_128.bin
(PID.TID 0000.0001)  MDSREADFIELDYZ: opening global file: OBW_Phy33_76x72x24_baltic_128.bin
(PID.TID 0000.0001)  MDSREADFIELDYZ: opening global file: OBW_Phy33_76x72x24_baltic_128.bin
(PID.TID 0000.0001)  MDSREADFIELDYZ: opening global file: OBW_Phy34_76x72x24_baltic_128.bin
(PID.TID 0000.0001)  MDSREADFIELDYZ: opening global file: OBW_Phy34_76x72x24_baltic_128.bin
(PID.TID 0000.0001)  MDSREADFIELDYZ: opening global file: OBW_Phy35_76x72x24_baltic_128.bin
(PID.TID 0000.0001)  MDSREADFIELDYZ: opening global file: OBW_Phy35_76x72x24_baltic_128.bin
(PID.TID 0000.0001)  MDSREADFIELDYZ: opening global file: OBW_Phy36_76x72x24_baltic_128.bin
(PID.TID 0000.0001)  MDSREADFIELDYZ: opening global file: OBW_Phy36_76x72x24_baltic_128.bin
(PID.TID 0000.0001)  MDSREADFIELDYZ: opening global file: OBW_Phy37_76x72x24_baltic_128.bin
(PID.TID 0000.0001)  MDSREADFIELDYZ: opening global file: OBW_Phy37_76x72x24_baltic_128.bin
(PID.TID 0000.0001)  MDSREADFIELDYZ: opening global file: OBW_Phy38_76x72x24_baltic_128.bin
(PID.TID 0000.0001)  MDSREADFIELDYZ: opening global file: OBW_Phy38_76x72x24_baltic_128.bin
(PID.TID 0000.0001)  MDSREADFIELDYZ: opening global file: OBW_Phy39_76x72x24_baltic_128.bin
(PID.TID 0000.0001)  MDSREADFIELDYZ: opening global file: OBW_Phy39_76x72x24_baltic_128.bin
(PID.TID 0000.0001)  MDSREADFIELDYZ: opening global file: OBW_Phy40_76x72x24_baltic_128.bin
(PID.TID 0000.0001)  MDSREADFIELDYZ: opening global file: OBW_Phy40_76x72x24_baltic_128.bin
(PID.TID 0000.0001)  MDSREADFIELDYZ: opening global file: OBW_Phy41_76x72x24_baltic_128.bin
(PID.TID 0000.0001)  MDSREADFIELDYZ: opening global file: OBW_Phy41_76x72x24_baltic_128.bin
(PID.TID 0000.0001)  MDSREADFIELDYZ: opening global file: OBW_Phy42_76x72x24_baltic_128.bin
(PID.TID 0000.0001)  MDSREADFIELDYZ: opening global file: OBW_Phy42_76x72x24_baltic_128.bin
(PID.TID 0000.0001)  MDSREADFIELDYZ: opening global file: OBW_Phy43_76x72x24_baltic_128.bin
(PID.TID 0000.0001)  MDSREADFIELDYZ: opening global file: OBW_Phy43_76x72x24_baltic_128.bin
(PID.TID 0000.0001)  MDSREADFIELDYZ: opening global file: OBW_Phy44_76x72x24_baltic_128.bin
(PID.TID 0000.0001)  MDSREADFIELDYZ: opening global file: OBW_Phy44_76x72x24_baltic_128.bin
(PID.TID 0000.0001)  MDSREADFIELDYZ: opening global file: OBW_Phy45_76x72x24_baltic_128.bin
(PID.TID 0000.0001)  MDSREADFIELDYZ: opening global file: OBW_Phy45_76x72x24_baltic_128.bin
(PID.TID 0000.0001)  MDSREADFIELDYZ: opening global file: OBW_Phy46_76x72x24_baltic_128.bin
(PID.TID 0000.0001)  MDSREADFIELDYZ: opening global file: OBW_Phy46_76x72x24_baltic_128.bin
(PID.TID 0000.0001)  MDSREADFIELDYZ: opening global file: OBW_Phy47_76x72x24_baltic_128.bin
(PID.TID 0000.0001)  MDSREADFIELDYZ: opening global file: OBW_Phy47_76x72x24_baltic_128.bin
(PID.TID 0000.0001)  MDSREADFIELDYZ: opening global file: OBW_Phy48_76x72x24_baltic_128.bin
(PID.TID 0000.0001)  MDSREADFIELDYZ: opening global file: OBW_Phy48_76x72x24_baltic_128.bin
(PID.TID 0000.0001)  MDSREADFIELDYZ: opening global file: OBW_Phy49_76x72x24_baltic_128.bin
(PID.TID 0000.0001)  MDSREADFIELDYZ: opening global file: OBW_Phy49_76x72x24_baltic_128.bin
(PID.TID 0000.0001)  MDSREADFIELDYZ: opening global file: OBW_Phy50_76x72x24_baltic_128.bin
(PID.TID 0000.0001)  MDSREADFIELDYZ: opening global file: OBW_Phy50_76x72x24_baltic_128.bin
(PID.TID 0000.0001)  MDSREADFIELDYZ: opening global file: OBW_Phy51_76x72x24_baltic_128.bin
(PID.TID 0000.0001)  MDSREADFIELDYZ: opening global file: OBW_Phy51_76x72x24_baltic_128.bin
(PID.TID 0000.0001)  MDSREADFIELDYZ: opening global file: OBW_Phy52_76x72x24_baltic_128.bin
(PID.TID 0000.0001)  MDSREADFIELDYZ: opening global file: OBW_Phy52_76x72x24_baltic_128.bin
(PID.TID 0000.0001)  MDSREADFIELDYZ: opening global file: OBW_Phy53_76x72x24_baltic_128.bin
(PID.TID 0000.0001)  MDSREADFIELDYZ: opening global file: OBW_Phy53_76x72x24_baltic_128.bin
(PID.TID 0000.0001)  MDSREADFIELDYZ: opening global file: OBW_Phy54_76x72x24_baltic_128.bin
(PID.TID 0000.0001)  MDSREADFIELDYZ: opening global file: OBW_Phy54_76x72x24_baltic_128.bin
(PID.TID 0000.0001)  MDSREADFIELDYZ: opening global file: OBW_Phy55_76x72x24_baltic_128.bin
(PID.TID 0000.0001)  MDSREADFIELDYZ: opening global file: OBW_Phy55_76x72x24_baltic_128.bin
(PID.TID 0000.0001)  MDSREADFIELDYZ: opening global file: OBW_Phy56_76x72x24_baltic_128.bin
(PID.TID 0000.0001)  MDSREADFIELDYZ: opening global file: OBW_Phy56_76x72x24_baltic_128.bin
(PID.TID 0000.0001)  MDSREADFIELDYZ: opening global file: OBW_Phy57_76x72x24_baltic_128.bin
(PID.TID 0000.0001)  MDSREADFIELDYZ: opening global file: OBW_Phy57_76x72x24_baltic_128.bin
(PID.TID 0000.0001)  MDSREADFIELDYZ: opening global file: OBW_Phy58_76x72x24_baltic_128.bin
(PID.TID 0000.0001)  MDSREADFIELDYZ: opening global file: OBW_Phy58_76x72x24_baltic_128.bin
(PID.TID 0000.0001)  MDSREADFIELDYZ: opening global file: OBW_Phy59_76x72x24_baltic_128.bin
(PID.TID 0000.0001)  MDSREADFIELDYZ: opening global file: OBW_Phy59_76x72x24_baltic_128.bin
(PID.TID 0000.0001)  MDSREADFIELDYZ: opening global file: OBW_Phy60_76x72x24_baltic_128.bin
(PID.TID 0000.0001)  MDSREADFIELDYZ: opening global file: OBW_Phy60_76x72x24_baltic_128.bin
(PID.TID 0000.0001)  MDSREADFIELDYZ: opening global file: OBW_Phy61_76x72x24_baltic_128.bin
(PID.TID 0000.0001)  MDSREADFIELDYZ: opening global file: OBW_Phy61_76x72x24_baltic_128.bin
(PID.TID 0000.0001)  MDSREADFIELDYZ: opening global file: OBW_Phy62_76x72x24_baltic_128.bin
(PID.TID 0000.0001)  MDSREADFIELDYZ: opening global file: OBW_Phy62_76x72x24_baltic_128.bin
(PID.TID 0000.0001)  MDSREADFIELDYZ: opening global file: OBW_Phy63_76x72x24_baltic_128.bin
(PID.TID 0000.0001)  MDSREADFIELDYZ: opening global file: OBW_Phy63_76x72x24_baltic_128.bin
(PID.TID 0000.0001)  MDSREADFIELDYZ: opening global file: OBW_Phy64_76x72x24_baltic_128.bin
(PID.TID 0000.0001)  MDSREADFIELDYZ: opening global file: OBW_Phy64_76x72x24_baltic_128.bin
(PID.TID 0000.0001)  MDSREADFIELDYZ: opening global file: OBW_Phy65_76x72x24_baltic_128.bin
(PID.TID 0000.0001)  MDSREADFIELDYZ: opening global file: OBW_Phy65_76x72x24_baltic_128.bin
(PID.TID 0000.0001)  MDSREADFIELDYZ: opening global file: OBW_Phy66_76x72x24_baltic_128.bin
(PID.TID 0000.0001)  MDSREADFIELDYZ: opening global file: OBW_Phy66_76x72x24_baltic_128.bin
(PID.TID 0000.0001)  MDSREADFIELDYZ: opening global file: OBW_Phy67_76x72x24_baltic_128.bin
(PID.TID 0000.0001)  MDSREADFIELDYZ: opening global file: OBW_Phy67_76x72x24_baltic_128.bin
(PID.TID 0000.0001)  MDSREADFIELDYZ: opening global file: OBW_Phy68_76x72x24_baltic_128.bin
(PID.TID 0000.0001)  MDSREADFIELDYZ: opening global file: OBW_Phy68_76x72x24_baltic_128.bin
(PID.TID 0000.0001)  MDSREADFIELDYZ: opening global file: OBW_Phy69_76x72x24_baltic_128.bin
(PID.TID 0000.0001)  MDSREADFIELDYZ: opening global file: OBW_Phy69_76x72x24_baltic_128.bin
(PID.TID 0000.0001)  MDSREADFIELDYZ: opening global file: OBW_Phy70_76x72x24_baltic_128.bin
(PID.TID 0000.0001)  MDSREADFIELDYZ: opening global file: OBW_Phy70_76x72x24_baltic_128.bin
(PID.TID 0000.0001)  MDSREADFIELDYZ: opening global file: OBW_Phy71_76x72x24_baltic_128.bin
(PID.TID 0000.0001)  MDSREADFIELDYZ: opening global file: OBW_Phy71_76x72x24_baltic_128.bin
(PID.TID 0000.0001)  MDSREADFIELDYZ: opening global file: OBW_Phy72_76x72x24_baltic_128.bin
(PID.TID 0000.0001)  MDSREADFIELDYZ: opening global file: OBW_Phy72_76x72x24_baltic_128.bin
(PID.TID 0000.0001)  MDSREADFIELDYZ: opening global file: OBW_Phy73_76x72x24_baltic_128.bin
(PID.TID 0000.0001)  MDSREADFIELDYZ: opening global file: OBW_Phy73_76x72x24_baltic_128.bin
(PID.TID 0000.0001)  MDSREADFIELDYZ: opening global file: OBW_Phy74_76x72x24_baltic_128.bin
(PID.TID 0000.0001)  MDSREADFIELDYZ: opening global file: OBW_Phy74_76x72x24_baltic_128.bin
(PID.TID 0000.0001)  MDSREADFIELDYZ: opening global file: OBW_Phy75_76x72x24_baltic_128.bin
(PID.TID 0000.0001)  MDSREADFIELDYZ: opening global file: OBW_Phy75_76x72x24_baltic_128.bin
(PID.TID 0000.0001)  MDSREADFIELDYZ: opening global file: OBW_Phy76_76x72x24_baltic_128.bin
(PID.TID 0000.0001)  MDSREADFIELDYZ: opening global file: OBW_Phy76_76x72x24_baltic_128.bin
(PID.TID 0000.0001)  MDSREADFIELDYZ: opening global file: OBW_Phy77_76x72x24_baltic_128.bin
(PID.TID 0000.0001)  MDSREADFIELDYZ: opening global file: OBW_Phy77_76x72x24_baltic_128.bin
(PID.TID 0000.0001)  MDSREADFIELDYZ: opening global file: OBW_Phy78_76x72x24_baltic_128.bin
(PID.TID 0000.0001)  MDSREADFIELDYZ: opening global file: OBW_Phy78_76x72x24_baltic_128.bin
(PID.TID 0000.0001)  MDSREADFIELDXZ: opening global file: OBNu_baltic_76x72.bin
(PID.TID 0000.0001)  MDSREADFIELDXZ: opening global file: OBNu_baltic_76x72.bin
(PID.TID 0000.0001)  MDSREADFIELDXZ: opening global file: OBNv_baltic_76x72.bin
(PID.TID 0000.0001)  MDSREADFIELDXZ: opening global file: OBNv_baltic_76x72.bin
(PID.TID 0000.0001)  MDSREADFIELDXZ: opening global file: OBNt_baltic_76x72.stable
(PID.TID 0000.0001)  MDSREADFIELDXZ: opening global file: OBNt_baltic_76x72.stable
(PID.TID 0000.0001)  MDSREADFIELDXZ: opening global file: OBNs_baltic_76x72.stable
(PID.TID 0000.0001)  MDSREADFIELDXZ: opening global file: OBNs_baltic_76x72.stable
(PID.TID 0000.0001)  MDSREADFIELDXZ: opening global file: OBN_PO4_76x72x24_baltic_128.bin
(PID.TID 0000.0001)  MDSREADFIELDXZ: opening global file: OBN_PO4_76x72x24_baltic_128.bin
(PID.TID 0000.0001)  MDSREADFIELDXZ: opening global file: OBN_NO3_76x72x24_baltic_128.bin
(PID.TID 0000.0001)  MDSREADFIELDXZ: opening global file: OBN_NO3_76x72x24_baltic_128.bin
(PID.TID 0000.0001)  MDSREADFIELDXZ: opening global file: OBN_FeT_76x72x24_baltic_128.bin
(PID.TID 0000.0001)  MDSREADFIELDXZ: opening global file: OBN_FeT_76x72x24_baltic_128.bin
(PID.TID 0000.0001)  MDSREADFIELDXZ: opening global file: OBN_SiO2_76x72x24_baltic_128.bin
(PID.TID 0000.0001)  MDSREADFIELDXZ: opening global file: OBN_SiO2_76x72x24_baltic_128.bin
(PID.TID 0000.0001)  MDSREADFIELDXZ: opening global file: OBN_DOP_76x72x24_baltic_128.bin
(PID.TID 0000.0001)  MDSREADFIELDXZ: opening global file: OBN_DOP_76x72x24_baltic_128.bin
(PID.TID 0000.0001)  MDSREADFIELDXZ: opening global file: OBN_DON_76x72x24_baltic_128.bin
(PID.TID 0000.0001)  MDSREADFIELDXZ: opening global file: OBN_DON_76x72x24_baltic_128.bin
(PID.TID 0000.0001)  MDSREADFIELDXZ: opening global file: OBN_DOFe_76x72x24_baltic_128.bin
(PID.TID 0000.0001)  MDSREADFIELDXZ: opening global file: OBN_DOFe_76x72x24_baltic_128.bin
(PID.TID 0000.0001)  MDSREADFIELDXZ: opening global file: OBN_ZOO1P_76x72x24_baltic_128.bin
(PID.TID 0000.0001)  MDSREADFIELDXZ: opening global file: OBN_ZOO1P_76x72x24_baltic_128.bin
(PID.TID 0000.0001)  MDSREADFIELDXZ: opening global file: OBN_ZOO1N_76x72x24_baltic_128.bin
(PID.TID 0000.0001)  MDSREADFIELDXZ: opening global file: OBN_ZOO1N_76x72x24_baltic_128.bin
(PID.TID 0000.0001)  MDSREADFIELDXZ: opening global file: OBN_ZOO1Fe_76x72x24_baltic_128.bin
(PID.TID 0000.0001)  MDSREADFIELDXZ: opening global file: OBN_ZOO1Fe_76x72x24_baltic_128.bin
(PID.TID 0000.0001)  MDSREADFIELDXZ: opening global file: OBN_ZOO1Si_76x72x24_baltic_128.bin
(PID.TID 0000.0001)  MDSREADFIELDXZ: opening global file: OBN_ZOO1Si_76x72x24_baltic_128.bin
(PID.TID 0000.0001)  MDSREADFIELDXZ: opening global file: OBN_ZOO2P_76x72x24_baltic_128.bin
(PID.TID 0000.0001)  MDSREADFIELDXZ: opening global file: OBN_ZOO2P_76x72x24_baltic_128.bin
(PID.TID 0000.0001)  MDSREADFIELDXZ: opening global file: OBN_ZOO2N_76x72x24_baltic_128.bin
(PID.TID 0000.0001)  MDSREADFIELDXZ: opening global file: OBN_ZOO2N_76x72x24_baltic_128.bin
(PID.TID 0000.0001)  MDSREADFIELDXZ: opening global file: OBN_ZOO2Fe_76x72x24_baltic_128.bin
(PID.TID 0000.0001)  MDSREADFIELDXZ: opening global file: OBN_ZOO2Fe_76x72x24_baltic_128.bin
(PID.TID 0000.0001)  MDSREADFIELDXZ: opening global file: OBN_ZOO2Si_76x72x24_baltic_128.bin
(PID.TID 0000.0001)  MDSREADFIELDXZ: opening global file: OBN_ZOO2Si_76x72x24_baltic_128.bin
(PID.TID 0000.0001)  MDSREADFIELDXZ: opening global file: OBN_POP_76x72x24_baltic_128.bin
(PID.TID 0000.0001)  MDSREADFIELDXZ: opening global file: OBN_POP_76x72x24_baltic_128.bin
(PID.TID 0000.0001)  MDSREADFIELDXZ: opening global file: OBN_PON_76x72x24_baltic_128.bin
(PID.TID 0000.0001)  MDSREADFIELDXZ: opening global file: OBN_PON_76x72x24_baltic_128.bin
(PID.TID 0000.0001)  MDSREADFIELDXZ: opening global file: OBN_POFe_76x72x24_baltic_128.bin
(PID.TID 0000.0001)  MDSREADFIELDXZ: opening global file: OBN_POFe_76x72x24_baltic_128.bin
(PID.TID 0000.0001)  MDSREADFIELDXZ: opening global file: OBN_POSi_76x72x24_baltic_128.bin
(PID.TID 0000.0001)  MDSREADFIELDXZ: opening global file: OBN_POSi_76x72x24_baltic_128.bin
(PID.TID 0000.0001)  MDSREADFIELDXZ: opening global file: OBN_NH4_76x72x24_baltic_128.bin
(PID.TID 0000.0001)  MDSREADFIELDXZ: opening global file: OBN_NH4_76x72x24_baltic_128.bin
(PID.TID 0000.0001)  MDSREADFIELDXZ: opening global file: OBN_NO2_76x72x24_baltic_128.bin
(PID.TID 0000.0001)  MDSREADFIELDXZ: opening global file: OBN_NO2_76x72x24_baltic_128.bin
(PID.TID 0000.0001)  MDSREADFIELDXZ: opening global file: OBN_Phy01_76x72x24_baltic_128.bin
(PID.TID 0000.0001)  MDSREADFIELDXZ: opening global file: OBN_Phy01_76x72x24_baltic_128.bin
(PID.TID 0000.0001)  MDSREADFIELDXZ: opening global file: OBN_Phy02_76x72x24_baltic_128.bin
(PID.TID 0000.0001)  MDSREADFIELDXZ: opening global file: OBN_Phy02_76x72x24_baltic_128.bin
(PID.TID 0000.0001)  MDSREADFIELDXZ: opening global file: OBN_Phy03_76x72x24_baltic_128.bin
(PID.TID 0000.0001)  MDSREADFIELDXZ: opening global file: OBN_Phy03_76x72x24_baltic_128.bin
(PID.TID 0000.0001)  MDSREADFIELDXZ: opening global file: OBN_Phy04_76x72x24_baltic_128.bin
(PID.TID 0000.0001)  MDSREADFIELDXZ: opening global file: OBN_Phy04_76x72x24_baltic_128.bin
(PID.TID 0000.0001)  MDSREADFIELDXZ: opening global file: OBN_Phy05_76x72x24_baltic_128.bin
(PID.TID 0000.0001)  MDSREADFIELDXZ: opening global file: OBN_Phy05_76x72x24_baltic_128.bin
(PID.TID 0000.0001)  MDSREADFIELDXZ: opening global file: OBN_Phy06_76x72x24_baltic_128.bin
(PID.TID 0000.0001)  MDSREADFIELDXZ: opening global file: OBN_Phy06_76x72x24_baltic_128.bin
(PID.TID 0000.0001)  MDSREADFIELDXZ: opening global file: OBN_Phy07_76x72x24_baltic_128.bin
(PID.TID 0000.0001)  MDSREADFIELDXZ: opening global file: OBN_Phy07_76x72x24_baltic_128.bin
(PID.TID 0000.0001)  MDSREADFIELDXZ: opening global file: OBN_Phy08_76x72x24_baltic_128.bin
(PID.TID 0000.0001)  MDSREADFIELDXZ: opening global file: OBN_Phy08_76x72x24_baltic_128.bin
(PID.TID 0000.0001)  MDSREADFIELDXZ: opening global file: OBN_Phy09_76x72x24_baltic_128.bin
(PID.TID 0000.0001)  MDSREADFIELDXZ: opening global file: OBN_Phy09_76x72x24_baltic_128.bin
(PID.TID 0000.0001)  MDSREADFIELDXZ: opening global file: OBN_Phy10_76x72x24_baltic_128.bin
(PID.TID 0000.0001)  MDSREADFIELDXZ: opening global file: OBN_Phy10_76x72x24_baltic_128.bin
(PID.TID 0000.0001)  MDSREADFIELDXZ: opening global file: OBN_Phy11_76x72x24_baltic_128.bin
(PID.TID 0000.0001)  MDSREADFIELDXZ: opening global file: OBN_Phy11_76x72x24_baltic_128.bin
(PID.TID 0000.0001)  MDSREADFIELDXZ: opening global file: OBN_Phy12_76x72x24_baltic_128.bin
(PID.TID 0000.0001)  MDSREADFIELDXZ: opening global file: OBN_Phy12_76x72x24_baltic_128.bin
(PID.TID 0000.0001)  MDSREADFIELDXZ: opening global file: OBN_Phy13_76x72x24_baltic_128.bin
(PID.TID 0000.0001)  MDSREADFIELDXZ: opening global file: OBN_Phy13_76x72x24_baltic_128.bin
(PID.TID 0000.0001)  MDSREADFIELDXZ: opening global file: OBN_Phy14_76x72x24_baltic_128.bin
(PID.TID 0000.0001)  MDSREADFIELDXZ: opening global file: OBN_Phy14_76x72x24_baltic_128.bin
(PID.TID 0000.0001)  MDSREADFIELDXZ: opening global file: OBN_Phy15_76x72x24_baltic_128.bin
(PID.TID 0000.0001)  MDSREADFIELDXZ: opening global file: OBN_Phy15_76x72x24_baltic_128.bin
(PID.TID 0000.0001)  MDSREADFIELDXZ: opening global file: OBN_Phy16_76x72x24_baltic_128.bin
(PID.TID 0000.0001)  MDSREADFIELDXZ: opening global file: OBN_Phy16_76x72x24_baltic_128.bin
(PID.TID 0000.0001)  MDSREADFIELDXZ: opening global file: OBN_Phy17_76x72x24_baltic_128.bin
(PID.TID 0000.0001)  MDSREADFIELDXZ: opening global file: OBN_Phy17_76x72x24_baltic_128.bin
(PID.TID 0000.0001)  MDSREADFIELDXZ: opening global file: OBN_Phy18_76x72x24_baltic_128.bin
(PID.TID 0000.0001)  MDSREADFIELDXZ: opening global file: OBN_Phy18_76x72x24_baltic_128.bin
(PID.TID 0000.0001)  MDSREADFIELDXZ: opening global file: OBN_Phy19_76x72x24_baltic_128.bin
(PID.TID 0000.0001)  MDSREADFIELDXZ: opening global file: OBN_Phy19_76x72x24_baltic_128.bin
(PID.TID 0000.0001)  MDSREADFIELDXZ: opening global file: OBN_Phy20_76x72x24_baltic_128.bin
(PID.TID 0000.0001)  MDSREADFIELDXZ: opening global file: OBN_Phy20_76x72x24_baltic_128.bin
(PID.TID 0000.0001)  MDSREADFIELDXZ: opening global file: OBN_Phy21_76x72x24_baltic_128.bin
(PID.TID 0000.0001)  MDSREADFIELDXZ: opening global file: OBN_Phy21_76x72x24_baltic_128.bin
(PID.TID 0000.0001)  MDSREADFIELDXZ: opening global file: OBN_Phy22_76x72x24_baltic_128.bin
(PID.TID 0000.0001)  MDSREADFIELDXZ: opening global file: OBN_Phy22_76x72x24_baltic_128.bin
(PID.TID 0000.0001)  MDSREADFIELDXZ: opening global file: OBN_Phy23_76x72x24_baltic_128.bin
(PID.TID 0000.0001)  MDSREADFIELDXZ: opening global file: OBN_Phy23_76x72x24_baltic_128.bin
(PID.TID 0000.0001)  MDSREADFIELDXZ: opening global file: OBN_Phy24_76x72x24_baltic_128.bin
(PID.TID 0000.0001)  MDSREADFIELDXZ: opening global file: OBN_Phy24_76x72x24_baltic_128.bin
(PID.TID 0000.0001)  MDSREADFIELDXZ: opening global file: OBN_Phy25_76x72x24_baltic_128.bin
(PID.TID 0000.0001)  MDSREADFIELDXZ: opening global file: OBN_Phy25_76x72x24_baltic_128.bin
(PID.TID 0000.0001)  MDSREADFIELDXZ: opening global file: OBN_Phy26_76x72x24_baltic_128.bin
(PID.TID 0000.0001)  MDSREADFIELDXZ: opening global file: OBN_Phy26_76x72x24_baltic_128.bin
(PID.TID 0000.0001)  MDSREADFIELDXZ: opening global file: OBN_Phy27_76x72x24_baltic_128.bin
(PID.TID 0000.0001)  MDSREADFIELDXZ: opening global file: OBN_Phy27_76x72x24_baltic_128.bin
(PID.TID 0000.0001)  MDSREADFIELDXZ: opening global file: OBN_Phy28_76x72x24_baltic_128.bin
(PID.TID 0000.0001)  MDSREADFIELDXZ: opening global file: OBN_Phy28_76x72x24_baltic_128.bin
(PID.TID 0000.0001)  MDSREADFIELDXZ: opening global file: OBN_Phy29_76x72x24_baltic_128.bin
(PID.TID 0000.0001)  MDSREADFIELDXZ: opening global file: OBN_Phy29_76x72x24_baltic_128.bin
(PID.TID 0000.0001)  MDSREADFIELDXZ: opening global file: OBN_Phy30_76x72x24_baltic_128.bin
(PID.TID 0000.0001)  MDSREADFIELDXZ: opening global file: OBN_Phy30_76x72x24_baltic_128.bin
(PID.TID 0000.0001)  MDSREADFIELDXZ: opening global file: OBN_Phy31_76x72x24_baltic_128.bin
(PID.TID 0000.0001)  MDSREADFIELDXZ: opening global file: OBN_Phy31_76x72x24_baltic_128.bin
(PID.TID 0000.0001)  MDSREADFIELDXZ: opening global file: OBN_Phy32_76x72x24_baltic_128.bin
(PID.TID 0000.0001)  MDSREADFIELDXZ: opening global file: OBN_Phy32_76x72x24_baltic_128.bin
(PID.TID 0000.0001)  MDSREADFIELDXZ: opening global file: OBN_Phy33_76x72x24_baltic_128.bin
(PID.TID 0000.0001)  MDSREADFIELDXZ: opening global file: OBN_Phy33_76x72x24_baltic_128.bin
(PID.TID 0000.0001)  MDSREADFIELDXZ: opening global file: OBN_Phy34_76x72x24_baltic_128.bin
(PID.TID 0000.0001)  MDSREADFIELDXZ: opening global file: OBN_Phy34_76x72x24_baltic_128.bin
(PID.TID 0000.0001)  MDSREADFIELDXZ: opening global file: OBN_Phy35_76x72x24_baltic_128.bin
(PID.TID 0000.0001)  MDSREADFIELDXZ: opening global file: OBN_Phy35_76x72x24_baltic_128.bin
(PID.TID 0000.0001)  MDSREADFIELDXZ: opening global file: OBN_Phy36_76x72x24_baltic_128.bin
(PID.TID 0000.0001)  MDSREADFIELDXZ: opening global file: OBN_Phy36_76x72x24_baltic_128.bin
(PID.TID 0000.0001)  MDSREADFIELDXZ: opening global file: OBN_Phy37_76x72x24_baltic_128.bin
(PID.TID 0000.0001)  MDSREADFIELDXZ: opening global file: OBN_Phy37_76x72x24_baltic_128.bin
(PID.TID 0000.0001)  MDSREADFIELDXZ: opening global file: OBN_Phy38_76x72x24_baltic_128.bin
(PID.TID 0000.0001)  MDSREADFIELDXZ: opening global file: OBN_Phy38_76x72x24_baltic_128.bin
(PID.TID 0000.0001)  MDSREADFIELDXZ: opening global file: OBN_Phy39_76x72x24_baltic_128.bin
(PID.TID 0000.0001)  MDSREADFIELDXZ: opening global file: OBN_Phy39_76x72x24_baltic_128.bin
(PID.TID 0000.0001)  MDSREADFIELDXZ: opening global file: OBN_Phy40_76x72x24_baltic_128.bin
(PID.TID 0000.0001)  MDSREADFIELDXZ: opening global file: OBN_Phy40_76x72x24_baltic_128.bin
(PID.TID 0000.0001)  MDSREADFIELDXZ: opening global file: OBN_Phy41_76x72x24_baltic_128.bin
(PID.TID 0000.0001)  MDSREADFIELDXZ: opening global file: OBN_Phy41_76x72x24_baltic_128.bin
(PID.TID 0000.0001)  MDSREADFIELDXZ: opening global file: OBN_Phy42_76x72x24_baltic_128.bin
(PID.TID 0000.0001)  MDSREADFIELDXZ: opening global file: OBN_Phy42_76x72x24_baltic_128.bin
(PID.TID 0000.0001)  MDSREADFIELDXZ: opening global file: OBN_Phy43_76x72x24_baltic_128.bin
(PID.TID 0000.0001)  MDSREADFIELDXZ: opening global file: OBN_Phy43_76x72x24_baltic_128.bin
(PID.TID 0000.0001)  MDSREADFIELDXZ: opening global file: OBN_Phy44_76x72x24_baltic_128.bin
(PID.TID 0000.0001)  MDSREADFIELDXZ: opening global file: OBN_Phy44_76x72x24_baltic_128.bin
(PID.TID 0000.0001)  MDSREADFIELDXZ: opening global file: OBN_Phy45_76x72x24_baltic_128.bin
(PID.TID 0000.0001)  MDSREADFIELDXZ: opening global file: OBN_Phy45_76x72x24_baltic_128.bin
(PID.TID 0000.0001)  MDSREADFIELDXZ: opening global file: OBN_Phy46_76x72x24_baltic_128.bin
(PID.TID 0000.0001)  MDSREADFIELDXZ: opening global file: OBN_Phy46_76x72x24_baltic_128.bin
(PID.TID 0000.0001)  MDSREADFIELDXZ: opening global file: OBN_Phy47_76x72x24_baltic_128.bin
(PID.TID 0000.0001)  MDSREADFIELDXZ: opening global file: OBN_Phy47_76x72x24_baltic_128.bin
(PID.TID 0000.0001)  MDSREADFIELDXZ: opening global file: OBN_Phy48_76x72x24_baltic_128.bin
(PID.TID 0000.0001)  MDSREADFIELDXZ: opening global file: OBN_Phy48_76x72x24_baltic_128.bin
(PID.TID 0000.0001)  MDSREADFIELDXZ: opening global file: OBN_Phy49_76x72x24_baltic_128.bin
(PID.TID 0000.0001)  MDSREADFIELDXZ: opening global file: OBN_Phy49_76x72x24_baltic_128.bin
(PID.TID 0000.0001)  MDSREADFIELDXZ: opening global file: OBN_Phy50_76x72x24_baltic_128.bin
(PID.TID 0000.0001)  MDSREADFIELDXZ: opening global file: OBN_Phy50_76x72x24_baltic_128.bin
(PID.TID 0000.0001)  MDSREADFIELDXZ: opening global file: OBN_Phy51_76x72x24_baltic_128.bin
(PID.TID 0000.0001)  MDSREADFIELDXZ: opening global file: OBN_Phy51_76x72x24_baltic_128.bin
(PID.TID 0000.0001)  MDSREADFIELDXZ: opening global file: OBN_Phy52_76x72x24_baltic_128.bin
(PID.TID 0000.0001)  MDSREADFIELDXZ: opening global file: OBN_Phy52_76x72x24_baltic_128.bin
(PID.TID 0000.0001)  MDSREADFIELDXZ: opening global file: OBN_Phy53_76x72x24_baltic_128.bin
(PID.TID 0000.0001)  MDSREADFIELDXZ: opening global file: OBN_Phy53_76x72x24_baltic_128.bin
(PID.TID 0000.0001)  MDSREADFIELDXZ: opening global file: OBN_Phy54_76x72x24_baltic_128.bin
(PID.TID 0000.0001)  MDSREADFIELDXZ: opening global file: OBN_Phy54_76x72x24_baltic_128.bin
(PID.TID 0000.0001)  MDSREADFIELDXZ: opening global file: OBN_Phy55_76x72x24_baltic_128.bin
(PID.TID 0000.0001)  MDSREADFIELDXZ: opening global file: OBN_Phy55_76x72x24_baltic_128.bin
(PID.TID 0000.0001)  MDSREADFIELDXZ: opening global file: OBN_Phy56_76x72x24_baltic_128.bin
(PID.TID 0000.0001)  MDSREADFIELDXZ: opening global file: OBN_Phy56_76x72x24_baltic_128.bin
(PID.TID 0000.0001)  MDSREADFIELDXZ: opening global file: OBN_Phy57_76x72x24_baltic_128.bin
(PID.TID 0000.0001)  MDSREADFIELDXZ: opening global file: OBN_Phy57_76x72x24_baltic_128.bin
(PID.TID 0000.0001)  MDSREADFIELDXZ: opening global file: OBN_Phy58_76x72x24_baltic_128.bin
(PID.TID 0000.0001)  MDSREADFIELDXZ: opening global file: OBN_Phy58_76x72x24_baltic_128.bin
(PID.TID 0000.0001)  MDSREADFIELDXZ: opening global file: OBN_Phy59_76x72x24_baltic_128.bin
(PID.TID 0000.0001)  MDSREADFIELDXZ: opening global file: OBN_Phy59_76x72x24_baltic_128.bin
(PID.TID 0000.0001)  MDSREADFIELDXZ: opening global file: OBN_Phy60_76x72x24_baltic_128.bin
(PID.TID 0000.0001)  MDSREADFIELDXZ: opening global file: OBN_Phy60_76x72x24_baltic_128.bin
(PID.TID 0000.0001)  MDSREADFIELDXZ: opening global file: OBN_Phy61_76x72x24_baltic_128.bin
(PID.TID 0000.0001)  MDSREADFIELDXZ: opening global file: OBN_Phy61_76x72x24_baltic_128.bin
(PID.TID 0000.0001)  MDSREADFIELDXZ: opening global file: OBN_Phy62_76x72x24_baltic_128.bin
(PID.TID 0000.0001)  MDSREADFIELDXZ: opening global file: OBN_Phy62_76x72x24_baltic_128.bin
(PID.TID 0000.0001)  MDSREADFIELDXZ: opening global file: OBN_Phy63_76x72x24_baltic_128.bin
(PID.TID 0000.0001)  MDSREADFIELDXZ: opening global file: OBN_Phy63_76x72x24_baltic_128.bin
(PID.TID 0000.0001)  MDSREADFIELDXZ: opening global file: OBN_Phy64_76x72x24_baltic_128.bin
(PID.TID 0000.0001)  MDSREADFIELDXZ: opening global file: OBN_Phy64_76x72x24_baltic_128.bin
(PID.TID 0000.0001)  MDSREADFIELDXZ: opening global file: OBN_Phy65_76x72x24_baltic_128.bin
(PID.TID 0000.0001)  MDSREADFIELDXZ: opening global file: OBN_Phy65_76x72x24_baltic_128.bin
(PID.TID 0000.0001)  MDSREADFIELDXZ: opening global file: OBN_Phy66_76x72x24_baltic_128.bin
(PID.TID 0000.0001)  MDSREADFIELDXZ: opening global file: OBN_Phy66_76x72x24_baltic_128.bin
(PID.TID 0000.0001)  MDSREADFIELDXZ: opening global file: OBN_Phy67_76x72x24_baltic_128.bin
(PID.TID 0000.0001)  MDSREADFIELDXZ: opening global file: OBN_Phy67_76x72x24_baltic_128.bin
(PID.TID 0000.0001)  MDSREADFIELDXZ: opening global file: OBN_Phy68_76x72x24_baltic_128.bin
(PID.TID 0000.0001)  MDSREADFIELDXZ: opening global file: OBN_Phy68_76x72x24_baltic_128.bin
(PID.TID 0000.0001)  MDSREADFIELDXZ: opening global file: OBN_Phy69_76x72x24_baltic_128.bin
(PID.TID 0000.0001)  MDSREADFIELDXZ: opening global file: OBN_Phy69_76x72x24_baltic_128.bin
(PID.TID 0000.0001)  MDSREADFIELDXZ: opening global file: OBN_Phy70_76x72x24_baltic_128.bin
(PID.TID 0000.0001)  MDSREADFIELDXZ: opening global file: OBN_Phy70_76x72x24_baltic_128.bin
(PID.TID 0000.0001)  MDSREADFIELDXZ: opening global file: OBN_Phy71_76x72x24_baltic_128.bin
(PID.TID 0000.0001)  MDSREADFIELDXZ: opening global file: OBN_Phy71_76x72x24_baltic_128.bin
(PID.TID 0000.0001)  MDSREADFIELDXZ: opening global file: OBN_Phy72_76x72x24_baltic_128.bin
(PID.TID 0000.0001)  MDSREADFIELDXZ: opening global file: OBN_Phy72_76x72x24_baltic_128.bin
(PID.TID 0000.0001)  MDSREADFIELDXZ: opening global file: OBN_Phy73_76x72x24_baltic_128.bin
(PID.TID 0000.0001)  MDSREADFIELDXZ: opening global file: OBN_Phy73_76x72x24_baltic_128.bin
(PID.TID 0000.0001)  MDSREADFIELDXZ: opening global file: OBN_Phy74_76x72x24_baltic_128.bin
(PID.TID 0000.0001)  MDSREADFIELDXZ: opening global file: OBN_Phy74_76x72x24_baltic_128.bin
(PID.TID 0000.0001)  MDSREADFIELDXZ: opening global file: OBN_Phy75_76x72x24_baltic_128.bin
(PID.TID 0000.0001)  MDSREADFIELDXZ: opening global file: OBN_Phy75_76x72x24_baltic_128.bin
(PID.TID 0000.0001)  MDSREADFIELDXZ: opening global file: OBN_Phy76_76x72x24_baltic_128.bin
(PID.TID 0000.0001)  MDSREADFIELDXZ: opening global file: OBN_Phy76_76x72x24_baltic_128.bin
(PID.TID 0000.0001)  MDSREADFIELDXZ: opening global file: OBN_Phy77_76x72x24_baltic_128.bin
(PID.TID 0000.0001)  MDSREADFIELDXZ: opening global file: OBN_Phy77_76x72x24_baltic_128.bin
(PID.TID 0000.0001)  MDSREADFIELDXZ: opening global file: OBN_Phy78_76x72x24_baltic_128.bin
(PID.TID 0000.0001)  MDSREADFIELDXZ: opening global file: OBN_Phy78_76x72x24_baltic_128.bin
(PID.TID 0000.0001)  MDSREADFIELDYZ: opening global file: OBWu_baltic_76x72.bin
(PID.TID 0000.0001)  MDSREADFIELDYZ: opening global file: OBWu_baltic_76x72.bin
(PID.TID 0000.0001)  MDSREADFIELDYZ: opening global file: OBWv_baltic_76x72.bin
(PID.TID 0000.0001)  MDSREADFIELDYZ: opening global file: OBWv_baltic_76x72.bin
(PID.TID 0000.0001)  MDSREADFIELDYZ: opening global file: OBWt_baltic_76x72.stable
(PID.TID 0000.0001)  MDSREADFIELDYZ: opening global file: OBWt_baltic_76x72.stable
(PID.TID 0000.0001)  MDSREADFIELDYZ: opening global file: OBWs_baltic_76x72.stable
(PID.TID 0000.0001)  MDSREADFIELDYZ: opening global file: OBWs_baltic_76x72.stable
(PID.TID 0000.0001)  MDSREADFIELDYZ: opening global file: OBW_PO4_76x72x24_baltic_128.bin
(PID.TID 0000.0001)  MDSREADFIELDYZ: opening global file: OBW_PO4_76x72x24_baltic_128.bin
(PID.TID 0000.0001)  MDSREADFIELDYZ: opening global file: OBW_NO3_76x72x24_baltic_128.bin
(PID.TID 0000.0001)  MDSREADFIELDYZ: opening global file: OBW_NO3_76x72x24_baltic_128.bin
(PID.TID 0000.0001)  MDSREADFIELDYZ: opening global file: OBW_FeT_76x72x24_baltic_128.bin
(PID.TID 0000.0001)  MDSREADFIELDYZ: opening global file: OBW_FeT_76x72x24_baltic_128.bin
(PID.TID 0000.0001)  MDSREADFIELDYZ: opening global file: OBW_SiO2_76x72x24_baltic_128.bin
(PID.TID 0000.0001)  MDSREADFIELDYZ: opening global file: OBW_SiO2_76x72x24_baltic_128.bin
(PID.TID 0000.0001)  MDSREADFIELDYZ: opening global file: OBW_DOP_76x72x24_baltic_128.bin
(PID.TID 0000.0001)  MDSREADFIELDYZ: opening global file: OBW_DOP_76x72x24_baltic_128.bin
(PID.TID 0000.0001)  MDSREADFIELDYZ: opening global file: OBW_DON_76x72x24_baltic_128.bin
(PID.TID 0000.0001)  MDSREADFIELDYZ: opening global file: OBW_DON_76x72x24_baltic_128.bin
(PID.TID 0000.0001)  MDSREADFIELDYZ: opening global file: OBW_DOFe_76x72x24_baltic_128.bin
(PID.TID 0000.0001)  MDSREADFIELDYZ: opening global file: OBW_DOFe_76x72x24_baltic_128.bin
(PID.TID 0000.0001)  MDSREADFIELDYZ: opening global file: OBW_ZOO1P_76x72x24_baltic_128.bin
(PID.TID 0000.0001)  MDSREADFIELDYZ: opening global file: OBW_ZOO1P_76x72x24_baltic_128.bin
(PID.TID 0000.0001)  MDSREADFIELDYZ: opening global file: OBW_ZOO1N_76x72x24_baltic_128.bin
(PID.TID 0000.0001)  MDSREADFIELDYZ: opening global file: OBW_ZOO1N_76x72x24_baltic_128.bin
(PID.TID 0000.0001)  MDSREADFIELDYZ: opening global file: OBW_ZOO1Fe_76x72x24_baltic_128.bin
(PID.TID 0000.0001)  MDSREADFIELDYZ: opening global file: OBW_ZOO1Fe_76x72x24_baltic_128.bin
(PID.TID 0000.0001)  MDSREADFIELDYZ: opening global file: OBW_ZOO1Si_76x72x24_baltic_128.bin
(PID.TID 0000.0001)  MDSREADFIELDYZ: opening global file: OBW_ZOO1Si_76x72x24_baltic_128.bin
(PID.TID 0000.0001)  MDSREADFIELDYZ: opening global file: OBW_ZOO2P_76x72x24_baltic_128.bin
(PID.TID 0000.0001)  MDSREADFIELDYZ: opening global file: OBW_ZOO2P_76x72x24_baltic_128.bin
(PID.TID 0000.0001)  MDSREADFIELDYZ: opening global file: OBW_ZOO2N_76x72x24_baltic_128.bin
(PID.TID 0000.0001)  MDSREADFIELDYZ: opening global file: OBW_ZOO2N_76x72x24_baltic_128.bin
(PID.TID 0000.0001)  MDSREADFIELDYZ: opening global file: OBW_ZOO2Fe_76x72x24_baltic_128.bin
(PID.TID 0000.0001)  MDSREADFIELDYZ: opening global file: OBW_ZOO2Fe_76x72x24_baltic_128.bin
(PID.TID 0000.0001)  MDSREADFIELDYZ: opening global file: OBW_ZOO2Si_76x72x24_baltic_128.bin
(PID.TID 0000.0001)  MDSREADFIELDYZ: opening global file: OBW_ZOO2Si_76x72x24_baltic_128.bin
(PID.TID 0000.0001)  MDSREADFIELDYZ: opening global file: OBW_POP_76x72x24_baltic_128.bin
(PID.TID 0000.0001)  MDSREADFIELDYZ: opening global file: OBW_POP_76x72x24_baltic_128.bin
(PID.TID 0000.0001)  MDSREADFIELDYZ: opening global file: OBW_PON_76x72x24_baltic_128.bin
(PID.TID 0000.0001)  MDSREADFIELDYZ: opening global file: OBW_PON_76x72x24_baltic_128.bin
(PID.TID 0000.0001)  MDSREADFIELDYZ: opening global file: OBW_POFe_76x72x24_baltic_128.bin
(PID.TID 0000.0001)  MDSREADFIELDYZ: opening global file: OBW_POFe_76x72x24_baltic_128.bin
(PID.TID 0000.0001)  MDSREADFIELDYZ: opening global file: OBW_POSi_76x72x24_baltic_128.bin
(PID.TID 0000.0001)  MDSREADFIELDYZ: opening global file: OBW_POSi_76x72x24_baltic_128.bin
(PID.TID 0000.0001)  MDSREADFIELDYZ: opening global file: OBW_NH4_76x72x24_baltic_128.bin
(PID.TID 0000.0001)  MDSREADFIELDYZ: opening global file: OBW_NH4_76x72x24_baltic_128.bin
(PID.TID 0000.0001)  MDSREADFIELDYZ: opening global file: OBW_NO2_76x72x24_baltic_128.bin
(PID.TID 0000.0001)  MDSREADFIELDYZ: opening global file: OBW_NO2_76x72x24_baltic_128.bin
(PID.TID 0000.0001)  MDSREADFIELDYZ: opening global file: OBW_Phy01_76x72x24_baltic_128.bin
(PID.TID 0000.0001)  MDSREADFIELDYZ: opening global file: OBW_Phy01_76x72x24_baltic_128.bin
(PID.TID 0000.0001)  MDSREADFIELDYZ: opening global file: OBW_Phy02_76x72x24_baltic_128.bin
(PID.TID 0000.0001)  MDSREADFIELDYZ: opening global file: OBW_Phy02_76x72x24_baltic_128.bin
(PID.TID 0000.0001)  MDSREADFIELDYZ: opening global file: OBW_Phy03_76x72x24_baltic_128.bin
(PID.TID 0000.0001)  MDSREADFIELDYZ: opening global file: OBW_Phy03_76x72x24_baltic_128.bin
(PID.TID 0000.0001)  MDSREADFIELDYZ: opening global file: OBW_Phy04_76x72x24_baltic_128.bin
(PID.TID 0000.0001)  MDSREADFIELDYZ: opening global file: OBW_Phy04_76x72x24_baltic_128.bin
(PID.TID 0000.0001)  MDSREADFIELDYZ: opening global file: OBW_Phy05_76x72x24_baltic_128.bin
(PID.TID 0000.0001)  MDSREADFIELDYZ: opening global file: OBW_Phy05_76x72x24_baltic_128.bin
(PID.TID 0000.0001)  MDSREADFIELDYZ: opening global file: OBW_Phy06_76x72x24_baltic_128.bin
(PID.TID 0000.0001)  MDSREADFIELDYZ: opening global file: OBW_Phy06_76x72x24_baltic_128.bin
(PID.TID 0000.0001)  MDSREADFIELDYZ: opening global file: OBW_Phy07_76x72x24_baltic_128.bin
(PID.TID 0000.0001)  MDSREADFIELDYZ: opening global file: OBW_Phy07_76x72x24_baltic_128.bin
(PID.TID 0000.0001)  MDSREADFIELDYZ: opening global file: OBW_Phy08_76x72x24_baltic_128.bin
(PID.TID 0000.0001)  MDSREADFIELDYZ: opening global file: OBW_Phy08_76x72x24_baltic_128.bin
(PID.TID 0000.0001)  MDSREADFIELDYZ: opening global file: OBW_Phy09_76x72x24_baltic_128.bin
(PID.TID 0000.0001)  MDSREADFIELDYZ: opening global file: OBW_Phy09_76x72x24_baltic_128.bin
(PID.TID 0000.0001)  MDSREADFIELDYZ: opening global file: OBW_Phy10_76x72x24_baltic_128.bin
(PID.TID 0000.0001)  MDSREADFIELDYZ: opening global file: OBW_Phy10_76x72x24_baltic_128.bin
(PID.TID 0000.0001)  MDSREADFIELDYZ: opening global file: OBW_Phy11_76x72x24_baltic_128.bin
(PID.TID 0000.0001)  MDSREADFIELDYZ: opening global file: OBW_Phy11_76x72x24_baltic_128.bin
(PID.TID 0000.0001)  MDSREADFIELDYZ: opening global file: OBW_Phy12_76x72x24_baltic_128.bin
(PID.TID 0000.0001)  MDSREADFIELDYZ: opening global file: OBW_Phy12_76x72x24_baltic_128.bin
(PID.TID 0000.0001)  MDSREADFIELDYZ: opening global file: OBW_Phy13_76x72x24_baltic_128.bin
(PID.TID 0000.0001)  MDSREADFIELDYZ: opening global file: OBW_Phy13_76x72x24_baltic_128.bin
(PID.TID 0000.0001)  MDSREADFIELDYZ: opening global file: OBW_Phy14_76x72x24_baltic_128.bin
(PID.TID 0000.0001)  MDSREADFIELDYZ: opening global file: OBW_Phy14_76x72x24_baltic_128.bin
(PID.TID 0000.0001)  MDSREADFIELDYZ: opening global file: OBW_Phy15_76x72x24_baltic_128.bin
(PID.TID 0000.0001)  MDSREADFIELDYZ: opening global file: OBW_Phy15_76x72x24_baltic_128.bin
(PID.TID 0000.0001)  MDSREADFIELDYZ: opening global file: OBW_Phy16_76x72x24_baltic_128.bin
(PID.TID 0000.0001)  MDSREADFIELDYZ: opening global file: OBW_Phy16_76x72x24_baltic_128.bin
(PID.TID 0000.0001)  MDSREADFIELDYZ: opening global file: OBW_Phy17_76x72x24_baltic_128.bin
(PID.TID 0000.0001)  MDSREADFIELDYZ: opening global file: OBW_Phy17_76x72x24_baltic_128.bin
(PID.TID 0000.0001)  MDSREADFIELDYZ: opening global file: OBW_Phy18_76x72x24_baltic_128.bin
(PID.TID 0000.0001)  MDSREADFIELDYZ: opening global file: OBW_Phy18_76x72x24_baltic_128.bin
(PID.TID 0000.0001)  MDSREADFIELDYZ: opening global file: OBW_Phy19_76x72x24_baltic_128.bin
(PID.TID 0000.0001)  MDSREADFIELDYZ: opening global file: OBW_Phy19_76x72x24_baltic_128.bin
(PID.TID 0000.0001)  MDSREADFIELDYZ: opening global file: OBW_Phy20_76x72x24_baltic_128.bin
(PID.TID 0000.0001)  MDSREADFIELDYZ: opening global file: OBW_Phy20_76x72x24_baltic_128.bin
(PID.TID 0000.0001)  MDSREADFIELDYZ: opening global file: OBW_Phy21_76x72x24_baltic_128.bin
(PID.TID 0000.0001)  MDSREADFIELDYZ: opening global file: OBW_Phy21_76x72x24_baltic_128.bin
(PID.TID 0000.0001)  MDSREADFIELDYZ: opening global file: OBW_Phy22_76x72x24_baltic_128.bin
(PID.TID 0000.0001)  MDSREADFIELDYZ: opening global file: OBW_Phy22_76x72x24_baltic_128.bin
(PID.TID 0000.0001)  MDSREADFIELDYZ: opening global file: OBW_Phy23_76x72x24_baltic_128.bin
(PID.TID 0000.0001)  MDSREADFIELDYZ: opening global file: OBW_Phy23_76x72x24_baltic_128.bin
(PID.TID 0000.0001)  MDSREADFIELDYZ: opening global file: OBW_Phy24_76x72x24_baltic_128.bin
(PID.TID 0000.0001)  MDSREADFIELDYZ: opening global file: OBW_Phy24_76x72x24_baltic_128.bin
(PID.TID 0000.0001)  MDSREADFIELDYZ: opening global file: OBW_Phy25_76x72x24_baltic_128.bin
(PID.TID 0000.0001)  MDSREADFIELDYZ: opening global file: OBW_Phy25_76x72x24_baltic_128.bin
(PID.TID 0000.0001)  MDSREADFIELDYZ: opening global file: OBW_Phy26_76x72x24_baltic_128.bin
(PID.TID 0000.0001)  MDSREADFIELDYZ: opening global file: OBW_Phy26_76x72x24_baltic_128.bin
(PID.TID 0000.0001)  MDSREADFIELDYZ: opening global file: OBW_Phy27_76x72x24_baltic_128.bin
(PID.TID 0000.0001)  MDSREADFIELDYZ: opening global file: OBW_Phy27_76x72x24_baltic_128.bin
(PID.TID 0000.0001)  MDSREADFIELDYZ: opening global file: OBW_Phy28_76x72x24_baltic_128.bin
(PID.TID 0000.0001)  MDSREADFIELDYZ: opening global file: OBW_Phy28_76x72x24_baltic_128.bin
(PID.TID 0000.0001)  MDSREADFIELDYZ: opening global file: OBW_Phy29_76x72x24_baltic_128.bin
(PID.TID 0000.0001)  MDSREADFIELDYZ: opening global file: OBW_Phy29_76x72x24_baltic_128.bin
(PID.TID 0000.0001)  MDSREADFIELDYZ: opening global file: OBW_Phy30_76x72x24_baltic_128.bin
(PID.TID 0000.0001)  MDSREADFIELDYZ: opening global file: OBW_Phy30_76x72x24_baltic_128.bin
(PID.TID 0000.0001)  MDSREADFIELDYZ: opening global file: OBW_Phy31_76x72x24_baltic_128.bin
(PID.TID 0000.0001)  MDSREADFIELDYZ: opening global file: OBW_Phy31_76x72x24_baltic_128.bin
(PID.TID 0000.0001)  MDSREADFIELDYZ: opening global file: OBW_Phy32_76x72x24_baltic_128.bin
(PID.TID 0000.0001)  MDSREADFIELDYZ: opening global file: OBW_Phy32_76x72x24_baltic_128.bin
(PID.TID 0000.0001)  MDSREADFIELDYZ: opening global file: OBW_Phy33_76x72x24_baltic_128.bin
(PID.TID 0000.0001)  MDSREADFIELDYZ: opening global file: OBW_Phy33_76x72x24_baltic_128.bin
(PID.TID 0000.0001)  MDSREADFIELDYZ: opening global file: OBW_Phy34_76x72x24_baltic_128.bin
(PID.TID 0000.0001)  MDSREADFIELDYZ: opening global file: OBW_Phy34_76x72x24_baltic_128.bin
(PID.TID 0000.0001)  MDSREADFIELDYZ: opening global file: OBW_Phy35_76x72x24_baltic_128.bin
(PID.TID 0000.0001)  MDSREADFIELDYZ: opening global file: OBW_Phy35_76x72x24_baltic_128.bin
(PID.TID 0000.0001)  MDSREADFIELDYZ: opening global file: OBW_Phy36_76x72x24_baltic_128.bin
(PID.TID 0000.0001)  MDSREADFIELDYZ: opening global file: OBW_Phy36_76x72x24_baltic_128.bin
(PID.TID 0000.0001)  MDSREADFIELDYZ: opening global file: OBW_Phy37_76x72x24_baltic_128.bin
(PID.TID 0000.0001)  MDSREADFIELDYZ: opening global file: OBW_Phy37_76x72x24_baltic_128.bin
(PID.TID 0000.0001)  MDSREADFIELDYZ: opening global file: OBW_Phy38_76x72x24_baltic_128.bin
(PID.TID 0000.0001)  MDSREADFIELDYZ: opening global file: OBW_Phy38_76x72x24_baltic_128.bin
(PID.TID 0000.0001)  MDSREADFIELDYZ: opening global file: OBW_Phy39_76x72x24_baltic_128.bin
(PID.TID 0000.0001)  MDSREADFIELDYZ: opening global file: OBW_Phy39_76x72x24_baltic_128.bin
(PID.TID 0000.0001)  MDSREADFIELDYZ: opening global file: OBW_Phy40_76x72x24_baltic_128.bin
(PID.TID 0000.0001)  MDSREADFIELDYZ: opening global file: OBW_Phy40_76x72x24_baltic_128.bin
(PID.TID 0000.0001)  MDSREADFIELDYZ: opening global file: OBW_Phy41_76x72x24_baltic_128.bin
(PID.TID 0000.0001)  MDSREADFIELDYZ: opening global file: OBW_Phy41_76x72x24_baltic_128.bin
(PID.TID 0000.0001)  MDSREADFIELDYZ: opening global file: OBW_Phy42_76x72x24_baltic_128.bin
(PID.TID 0000.0001)  MDSREADFIELDYZ: opening global file: OBW_Phy42_76x72x24_baltic_128.bin
(PID.TID 0000.0001)  MDSREADFIELDYZ: opening global file: OBW_Phy43_76x72x24_baltic_128.bin
(PID.TID 0000.0001)  MDSREADFIELDYZ: opening global file: OBW_Phy43_76x72x24_baltic_128.bin
(PID.TID 0000.0001)  MDSREADFIELDYZ: opening global file: OBW_Phy44_76x72x24_baltic_128.bin
(PID.TID 0000.0001)  MDSREADFIELDYZ: opening global file: OBW_Phy44_76x72x24_baltic_128.bin
(PID.TID 0000.0001)  MDSREADFIELDYZ: opening global file: OBW_Phy45_76x72x24_baltic_128.bin
(PID.TID 0000.0001)  MDSREADFIELDYZ: opening global file: OBW_Phy45_76x72x24_baltic_128.bin
(PID.TID 0000.0001)  MDSREADFIELDYZ: opening global file: OBW_Phy46_76x72x24_baltic_128.bin
(PID.TID 0000.0001)  MDSREADFIELDYZ: opening global file: OBW_Phy46_76x72x24_baltic_128.bin
(PID.TID 0000.0001)  MDSREADFIELDYZ: opening global file: OBW_Phy47_76x72x24_baltic_128.bin
(PID.TID 0000.0001)  MDSREADFIELDYZ: opening global file: OBW_Phy47_76x72x24_baltic_128.bin
(PID.TID 0000.0001)  MDSREADFIELDYZ: opening global file: OBW_Phy48_76x72x24_baltic_128.bin
(PID.TID 0000.0001)  MDSREADFIELDYZ: opening global file: OBW_Phy48_76x72x24_baltic_128.bin
(PID.TID 0000.0001)  MDSREADFIELDYZ: opening global file: OBW_Phy49_76x72x24_baltic_128.bin
(PID.TID 0000.0001)  MDSREADFIELDYZ: opening global file: OBW_Phy49_76x72x24_baltic_128.bin
(PID.TID 0000.0001)  MDSREADFIELDYZ: opening global file: OBW_Phy50_76x72x24_baltic_128.bin
(PID.TID 0000.0001)  MDSREADFIELDYZ: opening global file: OBW_Phy50_76x72x24_baltic_128.bin
(PID.TID 0000.0001)  MDSREADFIELDYZ: opening global file: OBW_Phy51_76x72x24_baltic_128.bin
(PID.TID 0000.0001)  MDSREADFIELDYZ: opening global file: OBW_Phy51_76x72x24_baltic_128.bin
(PID.TID 0000.0001)  MDSREADFIELDYZ: opening global file: OBW_Phy52_76x72x24_baltic_128.bin
(PID.TID 0000.0001)  MDSREADFIELDYZ: opening global file: OBW_Phy52_76x72x24_baltic_128.bin
(PID.TID 0000.0001)  MDSREADFIELDYZ: opening global file: OBW_Phy53_76x72x24_baltic_128.bin
(PID.TID 0000.0001)  MDSREADFIELDYZ: opening global file: OBW_Phy53_76x72x24_baltic_128.bin
(PID.TID 0000.0001)  MDSREADFIELDYZ: opening global file: OBW_Phy54_76x72x24_baltic_128.bin
(PID.TID 0000.0001)  MDSREADFIELDYZ: opening global file: OBW_Phy54_76x72x24_baltic_128.bin
(PID.TID 0000.0001)  MDSREADFIELDYZ: opening global file: OBW_Phy55_76x72x24_baltic_128.bin
(PID.TID 0000.0001)  MDSREADFIELDYZ: opening global file: OBW_Phy55_76x72x24_baltic_128.bin
(PID.TID 0000.0001)  MDSREADFIELDYZ: opening global file: OBW_Phy56_76x72x24_baltic_128.bin
(PID.TID 0000.0001)  MDSREADFIELDYZ: opening global file: OBW_Phy56_76x72x24_baltic_128.bin
(PID.TID 0000.0001)  MDSREADFIELDYZ: opening global file: OBW_Phy57_76x72x24_baltic_128.bin
(PID.TID 0000.0001)  MDSREADFIELDYZ: opening global file: OBW_Phy57_76x72x24_baltic_128.bin
(PID.TID 0000.0001)  MDSREADFIELDYZ: opening global file: OBW_Phy58_76x72x24_baltic_128.bin
(PID.TID 0000.0001)  MDSREADFIELDYZ: opening global file: OBW_Phy58_76x72x24_baltic_128.bin
(PID.TID 0000.0001)  MDSREADFIELDYZ: opening global file: OBW_Phy59_76x72x24_baltic_128.bin
(PID.TID 0000.0001)  MDSREADFIELDYZ: opening global file: OBW_Phy59_76x72x24_baltic_128.bin
(PID.TID 0000.0001)  MDSREADFIELDYZ: opening global file: OBW_Phy60_76x72x24_baltic_128.bin
(PID.TID 0000.0001)  MDSREADFIELDYZ: opening global file: OBW_Phy60_76x72x24_baltic_128.bin
(PID.TID 0000.0001)  MDSREADFIELDYZ: opening global file: OBW_Phy61_76x72x24_baltic_128.bin
(PID.TID 0000.0001)  MDSREADFIELDYZ: opening global file: OBW_Phy61_76x72x24_baltic_128.bin
(PID.TID 0000.0001)  MDSREADFIELDYZ: opening global file: OBW_Phy62_76x72x24_baltic_128.bin
(PID.TID 0000.0001)  MDSREADFIELDYZ: opening global file: OBW_Phy62_76x72x24_baltic_128.bin
(PID.TID 0000.0001)  MDSREADFIELDYZ: opening global file: OBW_Phy63_76x72x24_baltic_128.bin
(PID.TID 0000.0001)  MDSREADFIELDYZ: opening global file: OBW_Phy63_76x72x24_baltic_128.bin
(PID.TID 0000.0001)  MDSREADFIELDYZ: opening global file: OBW_Phy64_76x72x24_baltic_128.bin
(PID.TID 0000.0001)  MDSREADFIELDYZ: opening global file: OBW_Phy64_76x72x24_baltic_128.bin
(PID.TID 0000.0001)  MDSREADFIELDYZ: opening global file: OBW_Phy65_76x72x24_baltic_128.bin
(PID.TID 0000.0001)  MDSREADFIELDYZ: opening global file: OBW_Phy65_76x72x24_baltic_128.bin
(PID.TID 0000.0001)  MDSREADFIELDYZ: opening global file: OBW_Phy66_76x72x24_baltic_128.bin
(PID.TID 0000.0001)  MDSREADFIELDYZ: opening global file: OBW_Phy66_76x72x24_baltic_128.bin
(PID.TID 0000.0001)  MDSREADFIELDYZ: opening global file: OBW_Phy67_76x72x24_baltic_128.bin
(PID.TID 0000.0001)  MDSREADFIELDYZ: opening global file: OBW_Phy67_76x72x24_baltic_128.bin
(PID.TID 0000.0001)  MDSREADFIELDYZ: opening global file: OBW_Phy68_76x72x24_baltic_128.bin
(PID.TID 0000.0001)  MDSREADFIELDYZ: opening global file: OBW_Phy68_76x72x24_baltic_128.bin
(PID.TID 0000.0001)  MDSREADFIELDYZ: opening global file: OBW_Phy69_76x72x24_baltic_128.bin
(PID.TID 0000.0001)  MDSREADFIELDYZ: opening global file: OBW_Phy69_76x72x24_baltic_128.bin
(PID.TID 0000.0001)  MDSREADFIELDYZ: opening global file: OBW_Phy70_76x72x24_baltic_128.bin
(PID.TID 0000.0001)  MDSREADFIELDYZ: opening global file: OBW_Phy70_76x72x24_baltic_128.bin
(PID.TID 0000.0001)  MDSREADFIELDYZ: opening global file: OBW_Phy71_76x72x24_baltic_128.bin
(PID.TID 0000.0001)  MDSREADFIELDYZ: opening global file: OBW_Phy71_76x72x24_baltic_128.bin
(PID.TID 0000.0001)  MDSREADFIELDYZ: opening global file: OBW_Phy72_76x72x24_baltic_128.bin
(PID.TID 0000.0001)  MDSREADFIELDYZ: opening global file: OBW_Phy72_76x72x24_baltic_128.bin
(PID.TID 0000.0001)  MDSREADFIELDYZ: opening global file: OBW_Phy73_76x72x24_baltic_128.bin
(PID.TID 0000.0001)  MDSREADFIELDYZ: opening global file: OBW_Phy73_76x72x24_baltic_128.bin
(PID.TID 0000.0001)  MDSREADFIELDYZ: opening global file: OBW_Phy74_76x72x24_baltic_128.bin
(PID.TID 0000.0001)  MDSREADFIELDYZ: opening global file: OBW_Phy74_76x72x24_baltic_128.bin
(PID.TID 0000.0001)  MDSREADFIELDYZ: opening global file: OBW_Phy75_76x72x24_baltic_128.bin
(PID.TID 0000.0001)  MDSREADFIELDYZ: opening global file: OBW_Phy75_76x72x24_baltic_128.bin
(PID.TID 0000.0001)  MDSREADFIELDYZ: opening global file: OBW_Phy76_76x72x24_baltic_128.bin
(PID.TID 0000.0001)  MDSREADFIELDYZ: opening global file: OBW_Phy76_76x72x24_baltic_128.bin
(PID.TID 0000.0001)  MDSREADFIELDYZ: opening global file: OBW_Phy77_76x72x24_baltic_128.bin
(PID.TID 0000.0001)  MDSREADFIELDYZ: opening global file: OBW_Phy77_76x72x24_baltic_128.bin
(PID.TID 0000.0001)  MDSREADFIELDYZ: opening global file: OBW_Phy78_76x72x24_baltic_128.bin
(PID.TID 0000.0001)  MDSREADFIELDYZ: opening global file: OBW_Phy78_76x72x24_baltic_128.bin
(PID.TID 0000.0001)  MDSREADFIELDXZ: opening global file: OBNu_baltic_76x72.bin
(PID.TID 0000.0001)  MDSREADFIELDXZ: opening global file: OBNu_baltic_76x72.bin
(PID.TID 0000.0001)  MDSREADFIELDXZ: opening global file: OBNv_baltic_76x72.bin
(PID.TID 0000.0001)  MDSREADFIELDXZ: opening global file: OBNv_baltic_76x72.bin
(PID.TID 0000.0001)  MDSREADFIELDXZ: opening global file: OBNt_baltic_76x72.stable
(PID.TID 0000.0001)  MDSREADFIELDXZ: opening global file: OBNt_baltic_76x72.stable
(PID.TID 0000.0001)  MDSREADFIELDXZ: opening global file: OBNs_baltic_76x72.stable
(PID.TID 0000.0001)  MDSREADFIELDXZ: opening global file: OBNs_baltic_76x72.stable
(PID.TID 0000.0001)  MDSREADFIELDXZ: opening global file: OBN_PO4_76x72x24_baltic_128.bin
(PID.TID 0000.0001)  MDSREADFIELDXZ: opening global file: OBN_PO4_76x72x24_baltic_128.bin
(PID.TID 0000.0001)  MDSREADFIELDXZ: opening global file: OBN_NO3_76x72x24_baltic_128.bin
(PID.TID 0000.0001)  MDSREADFIELDXZ: opening global file: OBN_NO3_76x72x24_baltic_128.bin
(PID.TID 0000.0001)  MDSREADFIELDXZ: opening global file: OBN_FeT_76x72x24_baltic_128.bin
(PID.TID 0000.0001)  MDSREADFIELDXZ: opening global file: OBN_FeT_76x72x24_baltic_128.bin
(PID.TID 0000.0001)  MDSREADFIELDXZ: opening global file: OBN_SiO2_76x72x24_baltic_128.bin
(PID.TID 0000.0001)  MDSREADFIELDXZ: opening global file: OBN_SiO2_76x72x24_baltic_128.bin
(PID.TID 0000.0001)  MDSREADFIELDXZ: opening global file: OBN_DOP_76x72x24_baltic_128.bin
(PID.TID 0000.0001)  MDSREADFIELDXZ: opening global file: OBN_DOP_76x72x24_baltic_128.bin
(PID.TID 0000.0001)  MDSREADFIELDXZ: opening global file: OBN_DON_76x72x24_baltic_128.bin
(PID.TID 0000.0001)  MDSREADFIELDXZ: opening global file: OBN_DON_76x72x24_baltic_128.bin
(PID.TID 0000.0001)  MDSREADFIELDXZ: opening global file: OBN_DOFe_76x72x24_baltic_128.bin
(PID.TID 0000.0001)  MDSREADFIELDXZ: opening global file: OBN_DOFe_76x72x24_baltic_128.bin
(PID.TID 0000.0001)  MDSREADFIELDXZ: opening global file: OBN_ZOO1P_76x72x24_baltic_128.bin
(PID.TID 0000.0001)  MDSREADFIELDXZ: opening global file: OBN_ZOO1P_76x72x24_baltic_128.bin
(PID.TID 0000.0001)  MDSREADFIELDXZ: opening global file: OBN_ZOO1N_76x72x24_baltic_128.bin
(PID.TID 0000.0001)  MDSREADFIELDXZ: opening global file: OBN_ZOO1N_76x72x24_baltic_128.bin
(PID.TID 0000.0001)  MDSREADFIELDXZ: opening global file: OBN_ZOO1Fe_76x72x24_baltic_128.bin
(PID.TID 0000.0001)  MDSREADFIELDXZ: opening global file: OBN_ZOO1Fe_76x72x24_baltic_128.bin
(PID.TID 0000.0001)  MDSREADFIELDXZ: opening global file: OBN_ZOO1Si_76x72x24_baltic_128.bin
(PID.TID 0000.0001)  MDSREADFIELDXZ: opening global file: OBN_ZOO1Si_76x72x24_baltic_128.bin
(PID.TID 0000.0001)  MDSREADFIELDXZ: opening global file: OBN_ZOO2P_76x72x24_baltic_128.bin
(PID.TID 0000.0001)  MDSREADFIELDXZ: opening global file: OBN_ZOO2P_76x72x24_baltic_128.bin
(PID.TID 0000.0001)  MDSREADFIELDXZ: opening global file: OBN_ZOO2N_76x72x24_baltic_128.bin
(PID.TID 0000.0001)  MDSREADFIELDXZ: opening global file: OBN_ZOO2N_76x72x24_baltic_128.bin
(PID.TID 0000.0001)  MDSREADFIELDXZ: opening global file: OBN_ZOO2Fe_76x72x24_baltic_128.bin
(PID.TID 0000.0001)  MDSREADFIELDXZ: opening global file: OBN_ZOO2Fe_76x72x24_baltic_128.bin
(PID.TID 0000.0001)  MDSREADFIELDXZ: opening global file: OBN_ZOO2Si_76x72x24_baltic_128.bin
(PID.TID 0000.0001)  MDSREADFIELDXZ: opening global file: OBN_ZOO2Si_76x72x24_baltic_128.bin
(PID.TID 0000.0001)  MDSREADFIELDXZ: opening global file: OBN_POP_76x72x24_baltic_128.bin
(PID.TID 0000.0001)  MDSREADFIELDXZ: opening global file: OBN_POP_76x72x24_baltic_128.bin
(PID.TID 0000.0001)  MDSREADFIELDXZ: opening global file: OBN_PON_76x72x24_baltic_128.bin
(PID.TID 0000.0001)  MDSREADFIELDXZ: opening global file: OBN_PON_76x72x24_baltic_128.bin
(PID.TID 0000.0001)  MDSREADFIELDXZ: opening global file: OBN_POFe_76x72x24_baltic_128.bin
(PID.TID 0000.0001)  MDSREADFIELDXZ: opening global file: OBN_POFe_76x72x24_baltic_128.bin
(PID.TID 0000.0001)  MDSREADFIELDXZ: opening global file: OBN_POSi_76x72x24_baltic_128.bin
(PID.TID 0000.0001)  MDSREADFIELDXZ: opening global file: OBN_POSi_76x72x24_baltic_128.bin
(PID.TID 0000.0001)  MDSREADFIELDXZ: opening global file: OBN_NH4_76x72x24_baltic_128.bin
(PID.TID 0000.0001)  MDSREADFIELDXZ: opening global file: OBN_NH4_76x72x24_baltic_128.bin
(PID.TID 0000.0001)  MDSREADFIELDXZ: opening global file: OBN_NO2_76x72x24_baltic_128.bin
(PID.TID 0000.0001)  MDSREADFIELDXZ: opening global file: OBN_NO2_76x72x24_baltic_128.bin
(PID.TID 0000.0001)  MDSREADFIELDXZ: opening global file: OBN_Phy01_76x72x24_baltic_128.bin
(PID.TID 0000.0001)  MDSREADFIELDXZ: opening global file: OBN_Phy01_76x72x24_baltic_128.bin
(PID.TID 0000.0001)  MDSREADFIELDXZ: opening global file: OBN_Phy02_76x72x24_baltic_128.bin
(PID.TID 0000.0001)  MDSREADFIELDXZ: opening global file: OBN_Phy02_76x72x24_baltic_128.bin
(PID.TID 0000.0001)  MDSREADFIELDXZ: opening global file: OBN_Phy03_76x72x24_baltic_128.bin
(PID.TID 0000.0001)  MDSREADFIELDXZ: opening global file: OBN_Phy03_76x72x24_baltic_128.bin
(PID.TID 0000.0001)  MDSREADFIELDXZ: opening global file: OBN_Phy04_76x72x24_baltic_128.bin
(PID.TID 0000.0001)  MDSREADFIELDXZ: opening global file: OBN_Phy04_76x72x24_baltic_128.bin
(PID.TID 0000.0001)  MDSREADFIELDXZ: opening global file: OBN_Phy05_76x72x24_baltic_128.bin
(PID.TID 0000.0001)  MDSREADFIELDXZ: opening global file: OBN_Phy05_76x72x24_baltic_128.bin
(PID.TID 0000.0001)  MDSREADFIELDXZ: opening global file: OBN_Phy06_76x72x24_baltic_128.bin
(PID.TID 0000.0001)  MDSREADFIELDXZ: opening global file: OBN_Phy06_76x72x24_baltic_128.bin
(PID.TID 0000.0001)  MDSREADFIELDXZ: opening global file: OBN_Phy07_76x72x24_baltic_128.bin
(PID.TID 0000.0001)  MDSREADFIELDXZ: opening global file: OBN_Phy07_76x72x24_baltic_128.bin
(PID.TID 0000.0001)  MDSREADFIELDXZ: opening global file: OBN_Phy08_76x72x24_baltic_128.bin
(PID.TID 0000.0001)  MDSREADFIELDXZ: opening global file: OBN_Phy08_76x72x24_baltic_128.bin
(PID.TID 0000.0001)  MDSREADFIELDXZ: opening global file: OBN_Phy09_76x72x24_baltic_128.bin
(PID.TID 0000.0001)  MDSREADFIELDXZ: opening global file: OBN_Phy09_76x72x24_baltic_128.bin
(PID.TID 0000.0001)  MDSREADFIELDXZ: opening global file: OBN_Phy10_76x72x24_baltic_128.bin
(PID.TID 0000.0001)  MDSREADFIELDXZ: opening global file: OBN_Phy10_76x72x24_baltic_128.bin
(PID.TID 0000.0001)  MDSREADFIELDXZ: opening global file: OBN_Phy11_76x72x24_baltic_128.bin
(PID.TID 0000.0001)  MDSREADFIELDXZ: opening global file: OBN_Phy11_76x72x24_baltic_128.bin
(PID.TID 0000.0001)  MDSREADFIELDXZ: opening global file: OBN_Phy12_76x72x24_baltic_128.bin
(PID.TID 0000.0001)  MDSREADFIELDXZ: opening global file: OBN_Phy12_76x72x24_baltic_128.bin
(PID.TID 0000.0001)  MDSREADFIELDXZ: opening global file: OBN_Phy13_76x72x24_baltic_128.bin
(PID.TID 0000.0001)  MDSREADFIELDXZ: opening global file: OBN_Phy13_76x72x24_baltic_128.bin
(PID.TID 0000.0001)  MDSREADFIELDXZ: opening global file: OBN_Phy14_76x72x24_baltic_128.bin
(PID.TID 0000.0001)  MDSREADFIELDXZ: opening global file: OBN_Phy14_76x72x24_baltic_128.bin
(PID.TID 0000.0001)  MDSREADFIELDXZ: opening global file: OBN_Phy15_76x72x24_baltic_128.bin
(PID.TID 0000.0001)  MDSREADFIELDXZ: opening global file: OBN_Phy15_76x72x24_baltic_128.bin
(PID.TID 0000.0001)  MDSREADFIELDXZ: opening global file: OBN_Phy16_76x72x24_baltic_128.bin
(PID.TID 0000.0001)  MDSREADFIELDXZ: opening global file: OBN_Phy16_76x72x24_baltic_128.bin
(PID.TID 0000.0001)  MDSREADFIELDXZ: opening global file: OBN_Phy17_76x72x24_baltic_128.bin
(PID.TID 0000.0001)  MDSREADFIELDXZ: opening global file: OBN_Phy17_76x72x24_baltic_128.bin
(PID.TID 0000.0001)  MDSREADFIELDXZ: opening global file: OBN_Phy18_76x72x24_baltic_128.bin
(PID.TID 0000.0001)  MDSREADFIELDXZ: opening global file: OBN_Phy18_76x72x24_baltic_128.bin
(PID.TID 0000.0001)  MDSREADFIELDXZ: opening global file: OBN_Phy19_76x72x24_baltic_128.bin
(PID.TID 0000.0001)  MDSREADFIELDXZ: opening global file: OBN_Phy19_76x72x24_baltic_128.bin
(PID.TID 0000.0001)  MDSREADFIELDXZ: opening global file: OBN_Phy20_76x72x24_baltic_128.bin
(PID.TID 0000.0001)  MDSREADFIELDXZ: opening global file: OBN_Phy20_76x72x24_baltic_128.bin
(PID.TID 0000.0001)  MDSREADFIELDXZ: opening global file: OBN_Phy21_76x72x24_baltic_128.bin
(PID.TID 0000.0001)  MDSREADFIELDXZ: opening global file: OBN_Phy21_76x72x24_baltic_128.bin
(PID.TID 0000.0001)  MDSREADFIELDXZ: opening global file: OBN_Phy22_76x72x24_baltic_128.bin
(PID.TID 0000.0001)  MDSREADFIELDXZ: opening global file: OBN_Phy22_76x72x24_baltic_128.bin
(PID.TID 0000.0001)  MDSREADFIELDXZ: opening global file: OBN_Phy23_76x72x24_baltic_128.bin
(PID.TID 0000.0001)  MDSREADFIELDXZ: opening global file: OBN_Phy23_76x72x24_baltic_128.bin
(PID.TID 0000.0001)  MDSREADFIELDXZ: opening global file: OBN_Phy24_76x72x24_baltic_128.bin
(PID.TID 0000.0001)  MDSREADFIELDXZ: opening global file: OBN_Phy24_76x72x24_baltic_128.bin
(PID.TID 0000.0001)  MDSREADFIELDXZ: opening global file: OBN_Phy25_76x72x24_baltic_128.bin
(PID.TID 0000.0001)  MDSREADFIELDXZ: opening global file: OBN_Phy25_76x72x24_baltic_128.bin
(PID.TID 0000.0001)  MDSREADFIELDXZ: opening global file: OBN_Phy26_76x72x24_baltic_128.bin
(PID.TID 0000.0001)  MDSREADFIELDXZ: opening global file: OBN_Phy26_76x72x24_baltic_128.bin
(PID.TID 0000.0001)  MDSREADFIELDXZ: opening global file: OBN_Phy27_76x72x24_baltic_128.bin
(PID.TID 0000.0001)  MDSREADFIELDXZ: opening global file: OBN_Phy27_76x72x24_baltic_128.bin
(PID.TID 0000.0001)  MDSREADFIELDXZ: opening global file: OBN_Phy28_76x72x24_baltic_128.bin
(PID.TID 0000.0001)  MDSREADFIELDXZ: opening global file: OBN_Phy28_76x72x24_baltic_128.bin
(PID.TID 0000.0001)  MDSREADFIELDXZ: opening global file: OBN_Phy29_76x72x24_baltic_128.bin
(PID.TID 0000.0001)  MDSREADFIELDXZ: opening global file: OBN_Phy29_76x72x24_baltic_128.bin
(PID.TID 0000.0001)  MDSREADFIELDXZ: opening global file: OBN_Phy30_76x72x24_baltic_128.bin
(PID.TID 0000.0001)  MDSREADFIELDXZ: opening global file: OBN_Phy30_76x72x24_baltic_128.bin
(PID.TID 0000.0001)  MDSREADFIELDXZ: opening global file: OBN_Phy31_76x72x24_baltic_128.bin
(PID.TID 0000.0001)  MDSREADFIELDXZ: opening global file: OBN_Phy31_76x72x24_baltic_128.bin
(PID.TID 0000.0001)  MDSREADFIELDXZ: opening global file: OBN_Phy32_76x72x24_baltic_128.bin
(PID.TID 0000.0001)  MDSREADFIELDXZ: opening global file: OBN_Phy32_76x72x24_baltic_128.bin
(PID.TID 0000.0001)  MDSREADFIELDXZ: opening global file: OBN_Phy33_76x72x24_baltic_128.bin
(PID.TID 0000.0001)  MDSREADFIELDXZ: opening global file: OBN_Phy33_76x72x24_baltic_128.bin
(PID.TID 0000.0001)  MDSREADFIELDXZ: opening global file: OBN_Phy34_76x72x24_baltic_128.bin
(PID.TID 0000.0001)  MDSREADFIELDXZ: opening global file: OBN_Phy34_76x72x24_baltic_128.bin
(PID.TID 0000.0001)  MDSREADFIELDXZ: opening global file: OBN_Phy35_76x72x24_baltic_128.bin
(PID.TID 0000.0001)  MDSREADFIELDXZ: opening global file: OBN_Phy35_76x72x24_baltic_128.bin
(PID.TID 0000.0001)  MDSREADFIELDXZ: opening global file: OBN_Phy36_76x72x24_baltic_128.bin
(PID.TID 0000.0001)  MDSREADFIELDXZ: opening global file: OBN_Phy36_76x72x24_baltic_128.bin
(PID.TID 0000.0001)  MDSREADFIELDXZ: opening global file: OBN_Phy37_76x72x24_baltic_128.bin
(PID.TID 0000.0001)  MDSREADFIELDXZ: opening global file: OBN_Phy37_76x72x24_baltic_128.bin
(PID.TID 0000.0001)  MDSREADFIELDXZ: opening global file: OBN_Phy38_76x72x24_baltic_128.bin
(PID.TID 0000.0001)  MDSREADFIELDXZ: opening global file: OBN_Phy38_76x72x24_baltic_128.bin
(PID.TID 0000.0001)  MDSREADFIELDXZ: opening global file: OBN_Phy39_76x72x24_baltic_128.bin
(PID.TID 0000.0001)  MDSREADFIELDXZ: opening global file: OBN_Phy39_76x72x24_baltic_128.bin
(PID.TID 0000.0001)  MDSREADFIELDXZ: opening global file: OBN_Phy40_76x72x24_baltic_128.bin
(PID.TID 0000.0001)  MDSREADFIELDXZ: opening global file: OBN_Phy40_76x72x24_baltic_128.bin
(PID.TID 0000.0001)  MDSREADFIELDXZ: opening global file: OBN_Phy41_76x72x24_baltic_128.bin
(PID.TID 0000.0001)  MDSREADFIELDXZ: opening global file: OBN_Phy41_76x72x24_baltic_128.bin
(PID.TID 0000.0001)  MDSREADFIELDXZ: opening global file: OBN_Phy42_76x72x24_baltic_128.bin
(PID.TID 0000.0001)  MDSREADFIELDXZ: opening global file: OBN_Phy42_76x72x24_baltic_128.bin
(PID.TID 0000.0001)  MDSREADFIELDXZ: opening global file: OBN_Phy43_76x72x24_baltic_128.bin
(PID.TID 0000.0001)  MDSREADFIELDXZ: opening global file: OBN_Phy43_76x72x24_baltic_128.bin
(PID.TID 0000.0001)  MDSREADFIELDXZ: opening global file: OBN_Phy44_76x72x24_baltic_128.bin
(PID.TID 0000.0001)  MDSREADFIELDXZ: opening global file: OBN_Phy44_76x72x24_baltic_128.bin
(PID.TID 0000.0001)  MDSREADFIELDXZ: opening global file: OBN_Phy45_76x72x24_baltic_128.bin
(PID.TID 0000.0001)  MDSREADFIELDXZ: opening global file: OBN_Phy45_76x72x24_baltic_128.bin
(PID.TID 0000.0001)  MDSREADFIELDXZ: opening global file: OBN_Phy46_76x72x24_baltic_128.bin
(PID.TID 0000.0001)  MDSREADFIELDXZ: opening global file: OBN_Phy46_76x72x24_baltic_128.bin
(PID.TID 0000.0001)  MDSREADFIELDXZ: opening global file: OBN_Phy47_76x72x24_baltic_128.bin
(PID.TID 0000.0001)  MDSREADFIELDXZ: opening global file: OBN_Phy47_76x72x24_baltic_128.bin
(PID.TID 0000.0001)  MDSREADFIELDXZ: opening global file: OBN_Phy48_76x72x24_baltic_128.bin
(PID.TID 0000.0001)  MDSREADFIELDXZ: opening global file: OBN_Phy48_76x72x24_baltic_128.bin
(PID.TID 0000.0001)  MDSREADFIELDXZ: opening global file: OBN_Phy49_76x72x24_baltic_128.bin
(PID.TID 0000.0001)  MDSREADFIELDXZ: opening global file: OBN_Phy49_76x72x24_baltic_128.bin
(PID.TID 0000.0001)  MDSREADFIELDXZ: opening global file: OBN_Phy50_76x72x24_baltic_128.bin
(PID.TID 0000.0001)  MDSREADFIELDXZ: opening global file: OBN_Phy50_76x72x24_baltic_128.bin
(PID.TID 0000.0001)  MDSREADFIELDXZ: opening global file: OBN_Phy51_76x72x24_baltic_128.bin
(PID.TID 0000.0001)  MDSREADFIELDXZ: opening global file: OBN_Phy51_76x72x24_baltic_128.bin
(PID.TID 0000.0001)  MDSREADFIELDXZ: opening global file: OBN_Phy52_76x72x24_baltic_128.bin
(PID.TID 0000.0001)  MDSREADFIELDXZ: opening global file: OBN_Phy52_76x72x24_baltic_128.bin
(PID.TID 0000.0001)  MDSREADFIELDXZ: opening global file: OBN_Phy53_76x72x24_baltic_128.bin
(PID.TID 0000.0001)  MDSREADFIELDXZ: opening global file: OBN_Phy53_76x72x24_baltic_128.bin
(PID.TID 0000.0001)  MDSREADFIELDXZ: opening global file: OBN_Phy54_76x72x24_baltic_128.bin
(PID.TID 0000.0001)  MDSREADFIELDXZ: opening global file: OBN_Phy54_76x72x24_baltic_128.bin
(PID.TID 0000.0001)  MDSREADFIELDXZ: opening global file: OBN_Phy55_76x72x24_baltic_128.bin
(PID.TID 0000.0001)  MDSREADFIELDXZ: opening global file: OBN_Phy55_76x72x24_baltic_128.bin
(PID.TID 0000.0001)  MDSREADFIELDXZ: opening global file: OBN_Phy56_76x72x24_baltic_128.bin
(PID.TID 0000.0001)  MDSREADFIELDXZ: opening global file: OBN_Phy56_76x72x24_baltic_128.bin
(PID.TID 0000.0001)  MDSREADFIELDXZ: opening global file: OBN_Phy57_76x72x24_baltic_128.bin
(PID.TID 0000.0001)  MDSREADFIELDXZ: opening global file: OBN_Phy57_76x72x24_baltic_128.bin
(PID.TID 0000.0001)  MDSREADFIELDXZ: opening global file: OBN_Phy58_76x72x24_baltic_128.bin
(PID.TID 0000.0001)  MDSREADFIELDXZ: opening global file: OBN_Phy58_76x72x24_baltic_128.bin
(PID.TID 0000.0001)  MDSREADFIELDXZ: opening global file: OBN_Phy59_76x72x24_baltic_128.bin
(PID.TID 0000.0001)  MDSREADFIELDXZ: opening global file: OBN_Phy59_76x72x24_baltic_128.bin
(PID.TID 0000.0001)  MDSREADFIELDXZ: opening global file: OBN_Phy60_76x72x24_baltic_128.bin
(PID.TID 0000.0001)  MDSREADFIELDXZ: opening global file: OBN_Phy60_76x72x24_baltic_128.bin
(PID.TID 0000.0001)  MDSREADFIELDXZ: opening global file: OBN_Phy61_76x72x24_baltic_128.bin
(PID.TID 0000.0001)  MDSREADFIELDXZ: opening global file: OBN_Phy61_76x72x24_baltic_128.bin
(PID.TID 0000.0001)  MDSREADFIELDXZ: opening global file: OBN_Phy62_76x72x24_baltic_128.bin
(PID.TID 0000.0001)  MDSREADFIELDXZ: opening global file: OBN_Phy62_76x72x24_baltic_128.bin
(PID.TID 0000.0001)  MDSREADFIELDXZ: opening global file: OBN_Phy63_76x72x24_baltic_128.bin
(PID.TID 0000.0001)  MDSREADFIELDXZ: opening global file: OBN_Phy63_76x72x24_baltic_128.bin
(PID.TID 0000.0001)  MDSREADFIELDXZ: opening global file: OBN_Phy64_76x72x24_baltic_128.bin
(PID.TID 0000.0001)  MDSREADFIELDXZ: opening global file: OBN_Phy64_76x72x24_baltic_128.bin
(PID.TID 0000.0001)  MDSREADFIELDXZ: opening global file: OBN_Phy65_76x72x24_baltic_128.bin
(PID.TID 0000.0001)  MDSREADFIELDXZ: opening global file: OBN_Phy65_76x72x24_baltic_128.bin
(PID.TID 0000.0001)  MDSREADFIELDXZ: opening global file: OBN_Phy66_76x72x24_baltic_128.bin
(PID.TID 0000.0001)  MDSREADFIELDXZ: opening global file: OBN_Phy66_76x72x24_baltic_128.bin
(PID.TID 0000.0001)  MDSREADFIELDXZ: opening global file: OBN_Phy67_76x72x24_baltic_128.bin
(PID.TID 0000.0001)  MDSREADFIELDXZ: opening global file: OBN_Phy67_76x72x24_baltic_128.bin
(PID.TID 0000.0001)  MDSREADFIELDXZ: opening global file: OBN_Phy68_76x72x24_baltic_128.bin
(PID.TID 0000.0001)  MDSREADFIELDXZ: opening global file: OBN_Phy68_76x72x24_baltic_128.bin
(PID.TID 0000.0001)  MDSREADFIELDXZ: opening global file: OBN_Phy69_76x72x24_baltic_128.bin
(PID.TID 0000.0001)  MDSREADFIELDXZ: opening global file: OBN_Phy69_76x72x24_baltic_128.bin
(PID.TID 0000.0001)  MDSREADFIELDXZ: opening global file: OBN_Phy70_76x72x24_baltic_128.bin
(PID.TID 0000.0001)  MDSREADFIELDXZ: opening global file: OBN_Phy70_76x72x24_baltic_128.bin
(PID.TID 0000.0001)  MDSREADFIELDXZ: opening global file: OBN_Phy71_76x72x24_baltic_128.bin
(PID.TID 0000.0001)  MDSREADFIELDXZ: opening global file: OBN_Phy71_76x72x24_baltic_128.bin
(PID.TID 0000.0001)  MDSREADFIELDXZ: opening global file: OBN_Phy72_76x72x24_baltic_128.bin
(PID.TID 0000.0001)  MDSREADFIELDXZ: opening global file: OBN_Phy72_76x72x24_baltic_128.bin
(PID.TID 0000.0001)  MDSREADFIELDXZ: opening global file: OBN_Phy73_76x72x24_baltic_128.bin
(PID.TID 0000.0001)  MDSREADFIELDXZ: opening global file: OBN_Phy73_76x72x24_baltic_128.bin
(PID.TID 0000.0001)  MDSREADFIELDXZ: opening global file: OBN_Phy74_76x72x24_baltic_128.bin
(PID.TID 0000.0001)  MDSREADFIELDXZ: opening global file: OBN_Phy74_76x72x24_baltic_128.bin
(PID.TID 0000.0001)  MDSREADFIELDXZ: opening global file: OBN_Phy75_76x72x24_baltic_128.bin
(PID.TID 0000.0001)  MDSREADFIELDXZ: opening global file: OBN_Phy75_76x72x24_baltic_128.bin
(PID.TID 0000.0001)  MDSREADFIELDXZ: opening global file: OBN_Phy76_76x72x24_baltic_128.bin
(PID.TID 0000.0001)  MDSREADFIELDXZ: opening global file: OBN_Phy76_76x72x24_baltic_128.bin
(PID.TID 0000.0001)  MDSREADFIELDXZ: opening global file: OBN_Phy77_76x72x24_baltic_128.bin
(PID.TID 0000.0001)  MDSREADFIELDXZ: opening global file: OBN_Phy77_76x72x24_baltic_128.bin
(PID.TID 0000.0001)  MDSREADFIELDXZ: opening global file: OBN_Phy78_76x72x24_baltic_128.bin
(PID.TID 0000.0001)  MDSREADFIELDXZ: opening global file: OBN_Phy78_76x72x24_baltic_128.bin
(PID.TID 0000.0001)  MDSREADFIELDYZ: opening global file: OBWu_baltic_76x72.bin
(PID.TID 0000.0001)  MDSREADFIELDYZ: opening global file: OBWu_baltic_76x72.bin
(PID.TID 0000.0001)  MDSREADFIELDYZ: opening global file: OBWv_baltic_76x72.bin
(PID.TID 0000.0001)  MDSREADFIELDYZ: opening global file: OBWv_baltic_76x72.bin
(PID.TID 0000.0001)  MDSREADFIELDYZ: opening global file: OBWt_baltic_76x72.stable
(PID.TID 0000.0001)  MDSREADFIELDYZ: opening global file: OBWt_baltic_76x72.stable
(PID.TID 0000.0001)  MDSREADFIELDYZ: opening global file: OBWs_baltic_76x72.stable
(PID.TID 0000.0001)  MDSREADFIELDYZ: opening global file: OBWs_baltic_76x72.stable
(PID.TID 0000.0001)  MDSREADFIELDYZ: opening global file: OBW_PO4_76x72x24_baltic_128.bin
(PID.TID 0000.0001)  MDSREADFIELDYZ: opening global file: OBW_PO4_76x72x24_baltic_128.bin
(PID.TID 0000.0001)  MDSREADFIELDYZ: opening global file: OBW_NO3_76x72x24_baltic_128.bin
(PID.TID 0000.0001)  MDSREADFIELDYZ: opening global file: OBW_NO3_76x72x24_baltic_128.bin
(PID.TID 0000.0001)  MDSREADFIELDYZ: opening global file: OBW_FeT_76x72x24_baltic_128.bin
(PID.TID 0000.0001)  MDSREADFIELDYZ: opening global file: OBW_FeT_76x72x24_baltic_128.bin
(PID.TID 0000.0001)  MDSREADFIELDYZ: opening global file: OBW_SiO2_76x72x24_baltic_128.bin
(PID.TID 0000.0001)  MDSREADFIELDYZ: opening global file: OBW_SiO2_76x72x24_baltic_128.bin
(PID.TID 0000.0001)  MDSREADFIELDYZ: opening global file: OBW_DOP_76x72x24_baltic_128.bin
(PID.TID 0000.0001)  MDSREADFIELDYZ: opening global file: OBW_DOP_76x72x24_baltic_128.bin
(PID.TID 0000.0001)  MDSREADFIELDYZ: opening global file: OBW_DON_76x72x24_baltic_128.bin
(PID.TID 0000.0001)  MDSREADFIELDYZ: opening global file: OBW_DON_76x72x24_baltic_128.bin
(PID.TID 0000.0001)  MDSREADFIELDYZ: opening global file: OBW_DOFe_76x72x24_baltic_128.bin
(PID.TID 0000.0001)  MDSREADFIELDYZ: opening global file: OBW_DOFe_76x72x24_baltic_128.bin
(PID.TID 0000.0001)  MDSREADFIELDYZ: opening global file: OBW_ZOO1P_76x72x24_baltic_128.bin
(PID.TID 0000.0001)  MDSREADFIELDYZ: opening global file: OBW_ZOO1P_76x72x24_baltic_128.bin
(PID.TID 0000.0001)  MDSREADFIELDYZ: opening global file: OBW_ZOO1N_76x72x24_baltic_128.bin
(PID.TID 0000.0001)  MDSREADFIELDYZ: opening global file: OBW_ZOO1N_76x72x24_baltic_128.bin
(PID.TID 0000.0001)  MDSREADFIELDYZ: opening global file: OBW_ZOO1Fe_76x72x24_baltic_128.bin
(PID.TID 0000.0001)  MDSREADFIELDYZ: opening global file: OBW_ZOO1Fe_76x72x24_baltic_128.bin
(PID.TID 0000.0001)  MDSREADFIELDYZ: opening global file: OBW_ZOO1Si_76x72x24_baltic_128.bin
(PID.TID 0000.0001)  MDSREADFIELDYZ: opening global file: OBW_ZOO1Si_76x72x24_baltic_128.bin
(PID.TID 0000.0001)  MDSREADFIELDYZ: opening global file: OBW_ZOO2P_76x72x24_baltic_128.bin
(PID.TID 0000.0001)  MDSREADFIELDYZ: opening global file: OBW_ZOO2P_76x72x24_baltic_128.bin
(PID.TID 0000.0001)  MDSREADFIELDYZ: opening global file: OBW_ZOO2N_76x72x24_baltic_128.bin
(PID.TID 0000.0001)  MDSREADFIELDYZ: opening global file: OBW_ZOO2N_76x72x24_baltic_128.bin
(PID.TID 0000.0001)  MDSREADFIELDYZ: opening global file: OBW_ZOO2Fe_76x72x24_baltic_128.bin
(PID.TID 0000.0001)  MDSREADFIELDYZ: opening global file: OBW_ZOO2Fe_76x72x24_baltic_128.bin
(PID.TID 0000.0001)  MDSREADFIELDYZ: opening global file: OBW_ZOO2Si_76x72x24_baltic_128.bin
(PID.TID 0000.0001)  MDSREADFIELDYZ: opening global file: OBW_ZOO2Si_76x72x24_baltic_128.bin
(PID.TID 0000.0001)  MDSREADFIELDYZ: opening global file: OBW_POP_76x72x24_baltic_128.bin
(PID.TID 0000.0001)  MDSREADFIELDYZ: opening global file: OBW_POP_76x72x24_baltic_128.bin
(PID.TID 0000.0001)  MDSREADFIELDYZ: opening global file: OBW_PON_76x72x24_baltic_128.bin
(PID.TID 0000.0001)  MDSREADFIELDYZ: opening global file: OBW_PON_76x72x24_baltic_128.bin
(PID.TID 0000.0001)  MDSREADFIELDYZ: opening global file: OBW_POFe_76x72x24_baltic_128.bin
(PID.TID 0000.0001)  MDSREADFIELDYZ: opening global file: OBW_POFe_76x72x24_baltic_128.bin
(PID.TID 0000.0001)  MDSREADFIELDYZ: opening global file: OBW_POSi_76x72x24_baltic_128.bin
(PID.TID 0000.0001)  MDSREADFIELDYZ: opening global file: OBW_POSi_76x72x24_baltic_128.bin
(PID.TID 0000.0001)  MDSREADFIELDYZ: opening global file: OBW_NH4_76x72x24_baltic_128.bin
(PID.TID 0000.0001)  MDSREADFIELDYZ: opening global file: OBW_NH4_76x72x24_baltic_128.bin
(PID.TID 0000.0001)  MDSREADFIELDYZ: opening global file: OBW_NO2_76x72x24_baltic_128.bin
(PID.TID 0000.0001)  MDSREADFIELDYZ: opening global file: OBW_NO2_76x72x24_baltic_128.bin
(PID.TID 0000.0001)  MDSREADFIELDYZ: opening global file: OBW_Phy01_76x72x24_baltic_128.bin
(PID.TID 0000.0001)  MDSREADFIELDYZ: opening global file: OBW_Phy01_76x72x24_baltic_128.bin
(PID.TID 0000.0001)  MDSREADFIELDYZ: opening global file: OBW_Phy02_76x72x24_baltic_128.bin
(PID.TID 0000.0001)  MDSREADFIELDYZ: opening global file: OBW_Phy02_76x72x24_baltic_128.bin
(PID.TID 0000.0001)  MDSREADFIELDYZ: opening global file: OBW_Phy03_76x72x24_baltic_128.bin
(PID.TID 0000.0001)  MDSREADFIELDYZ: opening global file: OBW_Phy03_76x72x24_baltic_128.bin
(PID.TID 0000.0001)  MDSREADFIELDYZ: opening global file: OBW_Phy04_76x72x24_baltic_128.bin
(PID.TID 0000.0001)  MDSREADFIELDYZ: opening global file: OBW_Phy04_76x72x24_baltic_128.bin
(PID.TID 0000.0001)  MDSREADFIELDYZ: opening global file: OBW_Phy05_76x72x24_baltic_128.bin
(PID.TID 0000.0001)  MDSREADFIELDYZ: opening global file: OBW_Phy05_76x72x24_baltic_128.bin
(PID.TID 0000.0001)  MDSREADFIELDYZ: opening global file: OBW_Phy06_76x72x24_baltic_128.bin
(PID.TID 0000.0001)  MDSREADFIELDYZ: opening global file: OBW_Phy06_76x72x24_baltic_128.bin
(PID.TID 0000.0001)  MDSREADFIELDYZ: opening global file: OBW_Phy07_76x72x24_baltic_128.bin
(PID.TID 0000.0001)  MDSREADFIELDYZ: opening global file: OBW_Phy07_76x72x24_baltic_128.bin
(PID.TID 0000.0001)  MDSREADFIELDYZ: opening global file: OBW_Phy08_76x72x24_baltic_128.bin
(PID.TID 0000.0001)  MDSREADFIELDYZ: opening global file: OBW_Phy08_76x72x24_baltic_128.bin
(PID.TID 0000.0001)  MDSREADFIELDYZ: opening global file: OBW_Phy09_76x72x24_baltic_128.bin
(PID.TID 0000.0001)  MDSREADFIELDYZ: opening global file: OBW_Phy09_76x72x24_baltic_128.bin
(PID.TID 0000.0001)  MDSREADFIELDYZ: opening global file: OBW_Phy10_76x72x24_baltic_128.bin
(PID.TID 0000.0001)  MDSREADFIELDYZ: opening global file: OBW_Phy10_76x72x24_baltic_128.bin
(PID.TID 0000.0001)  MDSREADFIELDYZ: opening global file: OBW_Phy11_76x72x24_baltic_128.bin
(PID.TID 0000.0001)  MDSREADFIELDYZ: opening global file: OBW_Phy11_76x72x24_baltic_128.bin
(PID.TID 0000.0001)  MDSREADFIELDYZ: opening global file: OBW_Phy12_76x72x24_baltic_128.bin
(PID.TID 0000.0001)  MDSREADFIELDYZ: opening global file: OBW_Phy12_76x72x24_baltic_128.bin
(PID.TID 0000.0001)  MDSREADFIELDYZ: opening global file: OBW_Phy13_76x72x24_baltic_128.bin
(PID.TID 0000.0001)  MDSREADFIELDYZ: opening global file: OBW_Phy13_76x72x24_baltic_128.bin
(PID.TID 0000.0001)  MDSREADFIELDYZ: opening global file: OBW_Phy14_76x72x24_baltic_128.bin
(PID.TID 0000.0001)  MDSREADFIELDYZ: opening global file: OBW_Phy14_76x72x24_baltic_128.bin
(PID.TID 0000.0001)  MDSREADFIELDYZ: opening global file: OBW_Phy15_76x72x24_baltic_128.bin
(PID.TID 0000.0001)  MDSREADFIELDYZ: opening global file: OBW_Phy15_76x72x24_baltic_128.bin
(PID.TID 0000.0001)  MDSREADFIELDYZ: opening global file: OBW_Phy16_76x72x24_baltic_128.bin
(PID.TID 0000.0001)  MDSREADFIELDYZ: opening global file: OBW_Phy16_76x72x24_baltic_128.bin
(PID.TID 0000.0001)  MDSREADFIELDYZ: opening global file: OBW_Phy17_76x72x24_baltic_128.bin
(PID.TID 0000.0001)  MDSREADFIELDYZ: opening global file: OBW_Phy17_76x72x24_baltic_128.bin
(PID.TID 0000.0001)  MDSREADFIELDYZ: opening global file: OBW_Phy18_76x72x24_baltic_128.bin
(PID.TID 0000.0001)  MDSREADFIELDYZ: opening global file: OBW_Phy18_76x72x24_baltic_128.bin
(PID.TID 0000.0001)  MDSREADFIELDYZ: opening global file: OBW_Phy19_76x72x24_baltic_128.bin
(PID.TID 0000.0001)  MDSREADFIELDYZ: opening global file: OBW_Phy19_76x72x24_baltic_128.bin
(PID.TID 0000.0001)  MDSREADFIELDYZ: opening global file: OBW_Phy20_76x72x24_baltic_128.bin
(PID.TID 0000.0001)  MDSREADFIELDYZ: opening global file: OBW_Phy20_76x72x24_baltic_128.bin
(PID.TID 0000.0001)  MDSREADFIELDYZ: opening global file: OBW_Phy21_76x72x24_baltic_128.bin
(PID.TID 0000.0001)  MDSREADFIELDYZ: opening global file: OBW_Phy21_76x72x24_baltic_128.bin
(PID.TID 0000.0001)  MDSREADFIELDYZ: opening global file: OBW_Phy22_76x72x24_baltic_128.bin
(PID.TID 0000.0001)  MDSREADFIELDYZ: opening global file: OBW_Phy22_76x72x24_baltic_128.bin
(PID.TID 0000.0001)  MDSREADFIELDYZ: opening global file: OBW_Phy23_76x72x24_baltic_128.bin
(PID.TID 0000.0001)  MDSREADFIELDYZ: opening global file: OBW_Phy23_76x72x24_baltic_128.bin
(PID.TID 0000.0001)  MDSREADFIELDYZ: opening global file: OBW_Phy24_76x72x24_baltic_128.bin
(PID.TID 0000.0001)  MDSREADFIELDYZ: opening global file: OBW_Phy24_76x72x24_baltic_128.bin
(PID.TID 0000.0001)  MDSREADFIELDYZ: opening global file: OBW_Phy25_76x72x24_baltic_128.bin
(PID.TID 0000.0001)  MDSREADFIELDYZ: opening global file: OBW_Phy25_76x72x24_baltic_128.bin
(PID.TID 0000.0001)  MDSREADFIELDYZ: opening global file: OBW_Phy26_76x72x24_baltic_128.bin
(PID.TID 0000.0001)  MDSREADFIELDYZ: opening global file: OBW_Phy26_76x72x24_baltic_128.bin
(PID.TID 0000.0001)  MDSREADFIELDYZ: opening global file: OBW_Phy27_76x72x24_baltic_128.bin
(PID.TID 0000.0001)  MDSREADFIELDYZ: opening global file: OBW_Phy27_76x72x24_baltic_128.bin
(PID.TID 0000.0001)  MDSREADFIELDYZ: opening global file: OBW_Phy28_76x72x24_baltic_128.bin
(PID.TID 0000.0001)  MDSREADFIELDYZ: opening global file: OBW_Phy28_76x72x24_baltic_128.bin
(PID.TID 0000.0001)  MDSREADFIELDYZ: opening global file: OBW_Phy29_76x72x24_baltic_128.bin
(PID.TID 0000.0001)  MDSREADFIELDYZ: opening global file: OBW_Phy29_76x72x24_baltic_128.bin
(PID.TID 0000.0001)  MDSREADFIELDYZ: opening global file: OBW_Phy30_76x72x24_baltic_128.bin
(PID.TID 0000.0001)  MDSREADFIELDYZ: opening global file: OBW_Phy30_76x72x24_baltic_128.bin
(PID.TID 0000.0001)  MDSREADFIELDYZ: opening global file: OBW_Phy31_76x72x24_baltic_128.bin
(PID.TID 0000.0001)  MDSREADFIELDYZ: opening global file: OBW_Phy31_76x72x24_baltic_128.bin
(PID.TID 0000.0001)  MDSREADFIELDYZ: opening global file: OBW_Phy32_76x72x24_baltic_128.bin
(PID.TID 0000.0001)  MDSREADFIELDYZ: opening global file: OBW_Phy32_76x72x24_baltic_128.bin
(PID.TID 0000.0001)  MDSREADFIELDYZ: opening global file: OBW_Phy33_76x72x24_baltic_128.bin
(PID.TID 0000.0001)  MDSREADFIELDYZ: opening global file: OBW_Phy33_76x72x24_baltic_128.bin
(PID.TID 0000.0001)  MDSREADFIELDYZ: opening global file: OBW_Phy34_76x72x24_baltic_128.bin
(PID.TID 0000.0001)  MDSREADFIELDYZ: opening global file: OBW_Phy34_76x72x24_baltic_128.bin
(PID.TID 0000.0001)  MDSREADFIELDYZ: opening global file: OBW_Phy35_76x72x24_baltic_128.bin
(PID.TID 0000.0001)  MDSREADFIELDYZ: opening global file: OBW_Phy35_76x72x24_baltic_128.bin
(PID.TID 0000.0001)  MDSREADFIELDYZ: opening global file: OBW_Phy36_76x72x24_baltic_128.bin
(PID.TID 0000.0001)  MDSREADFIELDYZ: opening global file: OBW_Phy36_76x72x24_baltic_128.bin
(PID.TID 0000.0001)  MDSREADFIELDYZ: opening global file: OBW_Phy37_76x72x24_baltic_128.bin
(PID.TID 0000.0001)  MDSREADFIELDYZ: opening global file: OBW_Phy37_76x72x24_baltic_128.bin
(PID.TID 0000.0001)  MDSREADFIELDYZ: opening global file: OBW_Phy38_76x72x24_baltic_128.bin
(PID.TID 0000.0001)  MDSREADFIELDYZ: opening global file: OBW_Phy38_76x72x24_baltic_128.bin
(PID.TID 0000.0001)  MDSREADFIELDYZ: opening global file: OBW_Phy39_76x72x24_baltic_128.bin
(PID.TID 0000.0001)  MDSREADFIELDYZ: opening global file: OBW_Phy39_76x72x24_baltic_128.bin
(PID.TID 0000.0001)  MDSREADFIELDYZ: opening global file: OBW_Phy40_76x72x24_baltic_128.bin
(PID.TID 0000.0001)  MDSREADFIELDYZ: opening global file: OBW_Phy40_76x72x24_baltic_128.bin
(PID.TID 0000.0001)  MDSREADFIELDYZ: opening global file: OBW_Phy41_76x72x24_baltic_128.bin
(PID.TID 0000.0001)  MDSREADFIELDYZ: opening global file: OBW_Phy41_76x72x24_baltic_128.bin
(PID.TID 0000.0001)  MDSREADFIELDYZ: opening global file: OBW_Phy42_76x72x24_baltic_128.bin
(PID.TID 0000.0001)  MDSREADFIELDYZ: opening global file: OBW_Phy42_76x72x24_baltic_128.bin
(PID.TID 0000.0001)  MDSREADFIELDYZ: opening global file: OBW_Phy43_76x72x24_baltic_128.bin
(PID.TID 0000.0001)  MDSREADFIELDYZ: opening global file: OBW_Phy43_76x72x24_baltic_128.bin
(PID.TID 0000.0001)  MDSREADFIELDYZ: opening global file: OBW_Phy44_76x72x24_baltic_128.bin
(PID.TID 0000.0001)  MDSREADFIELDYZ: opening global file: OBW_Phy44_76x72x24_baltic_128.bin
(PID.TID 0000.0001)  MDSREADFIELDYZ: opening global file: OBW_Phy45_76x72x24_baltic_128.bin
(PID.TID 0000.0001)  MDSREADFIELDYZ: opening global file: OBW_Phy45_76x72x24_baltic_128.bin
(PID.TID 0000.0001)  MDSREADFIELDYZ: opening global file: OBW_Phy46_76x72x24_baltic_128.bin
(PID.TID 0000.0001)  MDSREADFIELDYZ: opening global file: OBW_Phy46_76x72x24_baltic_128.bin
(PID.TID 0000.0001)  MDSREADFIELDYZ: opening global file: OBW_Phy47_76x72x24_baltic_128.bin
(PID.TID 0000.0001)  MDSREADFIELDYZ: opening global file: OBW_Phy47_76x72x24_baltic_128.bin
(PID.TID 0000.0001)  MDSREADFIELDYZ: opening global file: OBW_Phy48_76x72x24_baltic_128.bin
(PID.TID 0000.0001)  MDSREADFIELDYZ: opening global file: OBW_Phy48_76x72x24_baltic_128.bin
(PID.TID 0000.0001)  MDSREADFIELDYZ: opening global file: OBW_Phy49_76x72x24_baltic_128.bin
(PID.TID 0000.0001)  MDSREADFIELDYZ: opening global file: OBW_Phy49_76x72x24_baltic_128.bin
(PID.TID 0000.0001)  MDSREADFIELDYZ: opening global file: OBW_Phy50_76x72x24_baltic_128.bin
(PID.TID 0000.0001)  MDSREADFIELDYZ: opening global file: OBW_Phy50_76x72x24_baltic_128.bin
(PID.TID 0000.0001)  MDSREADFIELDYZ: opening global file: OBW_Phy51_76x72x24_baltic_128.bin
(PID.TID 0000.0001)  MDSREADFIELDYZ: opening global file: OBW_Phy51_76x72x24_baltic_128.bin
(PID.TID 0000.0001)  MDSREADFIELDYZ: opening global file: OBW_Phy52_76x72x24_baltic_128.bin
(PID.TID 0000.0001)  MDSREADFIELDYZ: opening global file: OBW_Phy52_76x72x24_baltic_128.bin
(PID.TID 0000.0001)  MDSREADFIELDYZ: opening global file: OBW_Phy53_76x72x24_baltic_128.bin
(PID.TID 0000.0001)  MDSREADFIELDYZ: opening global file: OBW_Phy53_76x72x24_baltic_128.bin
(PID.TID 0000.0001)  MDSREADFIELDYZ: opening global file: OBW_Phy54_76x72x24_baltic_128.bin
(PID.TID 0000.0001)  MDSREADFIELDYZ: opening global file: OBW_Phy54_76x72x24_baltic_128.bin
(PID.TID 0000.0001)  MDSREADFIELDYZ: opening global file: OBW_Phy55_76x72x24_baltic_128.bin
(PID.TID 0000.0001)  MDSREADFIELDYZ: opening global file: OBW_Phy55_76x72x24_baltic_128.bin
(PID.TID 0000.0001)  MDSREADFIELDYZ: opening global file: OBW_Phy56_76x72x24_baltic_128.bin
(PID.TID 0000.0001)  MDSREADFIELDYZ: opening global file: OBW_Phy56_76x72x24_baltic_128.bin
(PID.TID 0000.0001)  MDSREADFIELDYZ: opening global file: OBW_Phy57_76x72x24_baltic_128.bin
(PID.TID 0000.0001)  MDSREADFIELDYZ: opening global file: OBW_Phy57_76x72x24_baltic_128.bin
(PID.TID 0000.0001)  MDSREADFIELDYZ: opening global file: OBW_Phy58_76x72x24_baltic_128.bin
(PID.TID 0000.0001)  MDSREADFIELDYZ: opening global file: OBW_Phy58_76x72x24_baltic_128.bin
(PID.TID 0000.0001)  MDSREADFIELDYZ: opening global file: OBW_Phy59_76x72x24_baltic_128.bin
(PID.TID 0000.0001)  MDSREADFIELDYZ: opening global file: OBW_Phy59_76x72x24_baltic_128.bin
(PID.TID 0000.0001)  MDSREADFIELDYZ: opening global file: OBW_Phy60_76x72x24_baltic_128.bin
(PID.TID 0000.0001)  MDSREADFIELDYZ: opening global file: OBW_Phy60_76x72x24_baltic_128.bin
(PID.TID 0000.0001)  MDSREADFIELDYZ: opening global file: OBW_Phy61_76x72x24_baltic_128.bin
(PID.TID 0000.0001)  MDSREADFIELDYZ: opening global file: OBW_Phy61_76x72x24_baltic_128.bin
(PID.TID 0000.0001)  MDSREADFIELDYZ: opening global file: OBW_Phy62_76x72x24_baltic_128.bin
(PID.TID 0000.0001)  MDSREADFIELDYZ: opening global file: OBW_Phy62_76x72x24_baltic_128.bin
(PID.TID 0000.0001)  MDSREADFIELDYZ: opening global file: OBW_Phy63_76x72x24_baltic_128.bin
(PID.TID 0000.0001)  MDSREADFIELDYZ: opening global file: OBW_Phy63_76x72x24_baltic_128.bin
(PID.TID 0000.0001)  MDSREADFIELDYZ: opening global file: OBW_Phy64_76x72x24_baltic_128.bin
(PID.TID 0000.0001)  MDSREADFIELDYZ: opening global file: OBW_Phy64_76x72x24_baltic_128.bin
(PID.TID 0000.0001)  MDSREADFIELDYZ: opening global file: OBW_Phy65_76x72x24_baltic_128.bin
(PID.TID 0000.0001)  MDSREADFIELDYZ: opening global file: OBW_Phy65_76x72x24_baltic_128.bin
(PID.TID 0000.0001)  MDSREADFIELDYZ: opening global file: OBW_Phy66_76x72x24_baltic_128.bin
(PID.TID 0000.0001)  MDSREADFIELDYZ: opening global file: OBW_Phy66_76x72x24_baltic_128.bin
(PID.TID 0000.0001)  MDSREADFIELDYZ: opening global file: OBW_Phy67_76x72x24_baltic_128.bin
(PID.TID 0000.0001)  MDSREADFIELDYZ: opening global file: OBW_Phy67_76x72x24_baltic_128.bin
(PID.TID 0000.0001)  MDSREADFIELDYZ: opening global file: OBW_Phy68_76x72x24_baltic_128.bin
(PID.TID 0000.0001)  MDSREADFIELDYZ: opening global file: OBW_Phy68_76x72x24_baltic_128.bin
(PID.TID 0000.0001)  MDSREADFIELDYZ: opening global file: OBW_Phy69_76x72x24_baltic_128.bin
(PID.TID 0000.0001)  MDSREADFIELDYZ: opening global file: OBW_Phy69_76x72x24_baltic_128.bin
(PID.TID 0000.0001)  MDSREADFIELDYZ: opening global file: OBW_Phy70_76x72x24_baltic_128.bin
(PID.TID 0000.0001)  MDSREADFIELDYZ: opening global file: OBW_Phy70_76x72x24_baltic_128.bin
(PID.TID 0000.0001)  MDSREADFIELDYZ: opening global file: OBW_Phy71_76x72x24_baltic_128.bin
(PID.TID 0000.0001)  MDSREADFIELDYZ: opening global file: OBW_Phy71_76x72x24_baltic_128.bin
(PID.TID 0000.0001)  MDSREADFIELDYZ: opening global file: OBW_Phy72_76x72x24_baltic_128.bin
(PID.TID 0000.0001)  MDSREADFIELDYZ: opening global file: OBW_Phy72_76x72x24_baltic_128.bin
(PID.TID 0000.0001)  MDSREADFIELDYZ: opening global file: OBW_Phy73_76x72x24_baltic_128.bin
(PID.TID 0000.0001)  MDSREADFIELDYZ: opening global file: OBW_Phy73_76x72x24_baltic_128.bin
(PID.TID 0000.0001)  MDSREADFIELDYZ: opening global file: OBW_Phy74_76x72x24_baltic_128.bin
(PID.TID 0000.0001)  MDSREADFIELDYZ: opening global file: OBW_Phy74_76x72x24_baltic_128.bin
(PID.TID 0000.0001)  MDSREADFIELDYZ: opening global file: OBW_Phy75_76x72x24_baltic_128.bin
(PID.TID 0000.0001)  MDSREADFIELDYZ: opening global file: OBW_Phy75_76x72x24_baltic_128.bin
(PID.TID 0000.0001)  MDSREADFIELDYZ: opening global file: OBW_Phy76_76x72x24_baltic_128.bin
(PID.TID 0000.0001)  MDSREADFIELDYZ: opening global file: OBW_Phy76_76x72x24_baltic_128.bin
(PID.TID 0000.0001)  MDSREADFIELDYZ: opening global file: OBW_Phy77_76x72x24_baltic_128.bin
(PID.TID 0000.0001)  MDSREADFIELDYZ: opening global file: OBW_Phy77_76x72x24_baltic_128.bin
(PID.TID 0000.0001)  MDSREADFIELDYZ: opening global file: OBW_Phy78_76x72x24_baltic_128.bin
(PID.TID 0000.0001)  MDSREADFIELDYZ: opening global file: OBW_Phy78_76x72x24_baltic_128.bin
(PID.TID 0000.0001)  MDSREADFIELDXZ: opening global file: OBNu_baltic_76x72.bin
(PID.TID 0000.0001)  MDSREADFIELDXZ: opening global file: OBNu_baltic_76x72.bin
(PID.TID 0000.0001)  MDSREADFIELDXZ: opening global file: OBNv_baltic_76x72.bin
(PID.TID 0000.0001)  MDSREADFIELDXZ: opening global file: OBNv_baltic_76x72.bin
(PID.TID 0000.0001)  MDSREADFIELDXZ: opening global file: OBNt_baltic_76x72.stable
(PID.TID 0000.0001)  MDSREADFIELDXZ: opening global file: OBNt_baltic_76x72.stable
(PID.TID 0000.0001)  MDSREADFIELDXZ: opening global file: OBNs_baltic_76x72.stable
(PID.TID 0000.0001)  MDSREADFIELDXZ: opening global file: OBNs_baltic_76x72.stable
(PID.TID 0000.0001)  MDSREADFIELDXZ: opening global file: OBN_PO4_76x72x24_baltic_128.bin
(PID.TID 0000.0001)  MDSREADFIELDXZ: opening global file: OBN_PO4_76x72x24_baltic_128.bin
(PID.TID 0000.0001)  MDSREADFIELDXZ: opening global file: OBN_NO3_76x72x24_baltic_128.bin
(PID.TID 0000.0001)  MDSREADFIELDXZ: opening global file: OBN_NO3_76x72x24_baltic_128.bin
(PID.TID 0000.0001)  MDSREADFIELDXZ: opening global file: OBN_FeT_76x72x24_baltic_128.bin
(PID.TID 0000.0001)  MDSREADFIELDXZ: opening global file: OBN_FeT_76x72x24_baltic_128.bin
(PID.TID 0000.0001)  MDSREADFIELDXZ: opening global file: OBN_SiO2_76x72x24_baltic_128.bin
(PID.TID 0000.0001)  MDSREADFIELDXZ: opening global file: OBN_SiO2_76x72x24_baltic_128.bin
(PID.TID 0000.0001)  MDSREADFIELDXZ: opening global file: OBN_DOP_76x72x24_baltic_128.bin
(PID.TID 0000.0001)  MDSREADFIELDXZ: opening global file: OBN_DOP_76x72x24_baltic_128.bin
(PID.TID 0000.0001)  MDSREADFIELDXZ: opening global file: OBN_DON_76x72x24_baltic_128.bin
(PID.TID 0000.0001)  MDSREADFIELDXZ: opening global file: OBN_DON_76x72x24_baltic_128.bin
(PID.TID 0000.0001)  MDSREADFIELDXZ: opening global file: OBN_DOFe_76x72x24_baltic_128.bin
(PID.TID 0000.0001)  MDSREADFIELDXZ: opening global file: OBN_DOFe_76x72x24_baltic_128.bin
(PID.TID 0000.0001)  MDSREADFIELDXZ: opening global file: OBN_ZOO1P_76x72x24_baltic_128.bin
(PID.TID 0000.0001)  MDSREADFIELDXZ: opening global file: OBN_ZOO1P_76x72x24_baltic_128.bin
(PID.TID 0000.0001)  MDSREADFIELDXZ: opening global file: OBN_ZOO1N_76x72x24_baltic_128.bin
(PID.TID 0000.0001)  MDSREADFIELDXZ: opening global file: OBN_ZOO1N_76x72x24_baltic_128.bin
(PID.TID 0000.0001)  MDSREADFIELDXZ: opening global file: OBN_ZOO1Fe_76x72x24_baltic_128.bin
(PID.TID 0000.0001)  MDSREADFIELDXZ: opening global file: OBN_ZOO1Fe_76x72x24_baltic_128.bin
(PID.TID 0000.0001)  MDSREADFIELDXZ: opening global file: OBN_ZOO1Si_76x72x24_baltic_128.bin
(PID.TID 0000.0001)  MDSREADFIELDXZ: opening global file: OBN_ZOO1Si_76x72x24_baltic_128.bin
(PID.TID 0000.0001)  MDSREADFIELDXZ: opening global file: OBN_ZOO2P_76x72x24_baltic_128.bin
(PID.TID 0000.0001)  MDSREADFIELDXZ: opening global file: OBN_ZOO2P_76x72x24_baltic_128.bin
(PID.TID 0000.0001)  MDSREADFIELDXZ: opening global file: OBN_ZOO2N_76x72x24_baltic_128.bin
(PID.TID 0000.0001)  MDSREADFIELDXZ: opening global file: OBN_ZOO2N_76x72x24_baltic_128.bin
(PID.TID 0000.0001)  MDSREADFIELDXZ: opening global file: OBN_ZOO2Fe_76x72x24_baltic_128.bin
(PID.TID 0000.0001)  MDSREADFIELDXZ: opening global file: OBN_ZOO2Fe_76x72x24_baltic_128.bin
(PID.TID 0000.0001)  MDSREADFIELDXZ: opening global file: OBN_ZOO2Si_76x72x24_baltic_128.bin
(PID.TID 0000.0001)  MDSREADFIELDXZ: opening global file: OBN_ZOO2Si_76x72x24_baltic_128.bin
(PID.TID 0000.0001)  MDSREADFIELDXZ: opening global file: OBN_POP_76x72x24_baltic_128.bin
(PID.TID 0000.0001)  MDSREADFIELDXZ: opening global file: OBN_POP_76x72x24_baltic_128.bin
(PID.TID 0000.0001)  MDSREADFIELDXZ: opening global file: OBN_PON_76x72x24_baltic_128.bin
(PID.TID 0000.0001)  MDSREADFIELDXZ: opening global file: OBN_PON_76x72x24_baltic_128.bin
(PID.TID 0000.0001)  MDSREADFIELDXZ: opening global file: OBN_POFe_76x72x24_baltic_128.bin
(PID.TID 0000.0001)  MDSREADFIELDXZ: opening global file: OBN_POFe_76x72x24_baltic_128.bin
(PID.TID 0000.0001)  MDSREADFIELDXZ: opening global file: OBN_POSi_76x72x24_baltic_128.bin
(PID.TID 0000.0001)  MDSREADFIELDXZ: opening global file: OBN_POSi_76x72x24_baltic_128.bin
(PID.TID 0000.0001)  MDSREADFIELDXZ: opening global file: OBN_NH4_76x72x24_baltic_128.bin
(PID.TID 0000.0001)  MDSREADFIELDXZ: opening global file: OBN_NH4_76x72x24_baltic_128.bin
(PID.TID 0000.0001)  MDSREADFIELDXZ: opening global file: OBN_NO2_76x72x24_baltic_128.bin
(PID.TID 0000.0001)  MDSREADFIELDXZ: opening global file: OBN_NO2_76x72x24_baltic_128.bin
(PID.TID 0000.0001)  MDSREADFIELDXZ: opening global file: OBN_Phy01_76x72x24_baltic_128.bin
(PID.TID 0000.0001)  MDSREADFIELDXZ: opening global file: OBN_Phy01_76x72x24_baltic_128.bin
(PID.TID 0000.0001)  MDSREADFIELDXZ: opening global file: OBN_Phy02_76x72x24_baltic_128.bin
(PID.TID 0000.0001)  MDSREADFIELDXZ: opening global file: OBN_Phy02_76x72x24_baltic_128.bin
(PID.TID 0000.0001)  MDSREADFIELDXZ: opening global file: OBN_Phy03_76x72x24_baltic_128.bin
(PID.TID 0000.0001)  MDSREADFIELDXZ: opening global file: OBN_Phy03_76x72x24_baltic_128.bin
(PID.TID 0000.0001)  MDSREADFIELDXZ: opening global file: OBN_Phy04_76x72x24_baltic_128.bin
(PID.TID 0000.0001)  MDSREADFIELDXZ: opening global file: OBN_Phy04_76x72x24_baltic_128.bin
(PID.TID 0000.0001)  MDSREADFIELDXZ: opening global file: OBN_Phy05_76x72x24_baltic_128.bin
(PID.TID 0000.0001)  MDSREADFIELDXZ: opening global file: OBN_Phy05_76x72x24_baltic_128.bin
(PID.TID 0000.0001)  MDSREADFIELDXZ: opening global file: OBN_Phy06_76x72x24_baltic_128.bin
(PID.TID 0000.0001)  MDSREADFIELDXZ: opening global file: OBN_Phy06_76x72x24_baltic_128.bin
(PID.TID 0000.0001)  MDSREADFIELDXZ: opening global file: OBN_Phy07_76x72x24_baltic_128.bin
(PID.TID 0000.0001)  MDSREADFIELDXZ: opening global file: OBN_Phy07_76x72x24_baltic_128.bin
(PID.TID 0000.0001)  MDSREADFIELDXZ: opening global file: OBN_Phy08_76x72x24_baltic_128.bin
(PID.TID 0000.0001)  MDSREADFIELDXZ: opening global file: OBN_Phy08_76x72x24_baltic_128.bin
(PID.TID 0000.0001)  MDSREADFIELDXZ: opening global file: OBN_Phy09_76x72x24_baltic_128.bin
(PID.TID 0000.0001)  MDSREADFIELDXZ: opening global file: OBN_Phy09_76x72x24_baltic_128.bin
(PID.TID 0000.0001)  MDSREADFIELDXZ: opening global file: OBN_Phy10_76x72x24_baltic_128.bin
(PID.TID 0000.0001)  MDSREADFIELDXZ: opening global file: OBN_Phy10_76x72x24_baltic_128.bin
(PID.TID 0000.0001)  MDSREADFIELDXZ: opening global file: OBN_Phy11_76x72x24_baltic_128.bin
(PID.TID 0000.0001)  MDSREADFIELDXZ: opening global file: OBN_Phy11_76x72x24_baltic_128.bin
(PID.TID 0000.0001)  MDSREADFIELDXZ: opening global file: OBN_Phy12_76x72x24_baltic_128.bin
(PID.TID 0000.0001)  MDSREADFIELDXZ: opening global file: OBN_Phy12_76x72x24_baltic_128.bin
(PID.TID 0000.0001)  MDSREADFIELDXZ: opening global file: OBN_Phy13_76x72x24_baltic_128.bin
(PID.TID 0000.0001)  MDSREADFIELDXZ: opening global file: OBN_Phy13_76x72x24_baltic_128.bin
(PID.TID 0000.0001)  MDSREADFIELDXZ: opening global file: OBN_Phy14_76x72x24_baltic_128.bin
(PID.TID 0000.0001)  MDSREADFIELDXZ: opening global file: OBN_Phy14_76x72x24_baltic_128.bin
(PID.TID 0000.0001)  MDSREADFIELDXZ: opening global file: OBN_Phy15_76x72x24_baltic_128.bin
(PID.TID 0000.0001)  MDSREADFIELDXZ: opening global file: OBN_Phy15_76x72x24_baltic_128.bin
(PID.TID 0000.0001)  MDSREADFIELDXZ: opening global file: OBN_Phy16_76x72x24_baltic_128.bin
(PID.TID 0000.0001)  MDSREADFIELDXZ: opening global file: OBN_Phy16_76x72x24_baltic_128.bin
(PID.TID 0000.0001)  MDSREADFIELDXZ: opening global file: OBN_Phy17_76x72x24_baltic_128.bin
(PID.TID 0000.0001)  MDSREADFIELDXZ: opening global file: OBN_Phy17_76x72x24_baltic_128.bin
(PID.TID 0000.0001)  MDSREADFIELDXZ: opening global file: OBN_Phy18_76x72x24_baltic_128.bin
(PID.TID 0000.0001)  MDSREADFIELDXZ: opening global file: OBN_Phy18_76x72x24_baltic_128.bin
(PID.TID 0000.0001)  MDSREADFIELDXZ: opening global file: OBN_Phy19_76x72x24_baltic_128.bin
(PID.TID 0000.0001)  MDSREADFIELDXZ: opening global file: OBN_Phy19_76x72x24_baltic_128.bin
(PID.TID 0000.0001)  MDSREADFIELDXZ: opening global file: OBN_Phy20_76x72x24_baltic_128.bin
(PID.TID 0000.0001)  MDSREADFIELDXZ: opening global file: OBN_Phy20_76x72x24_baltic_128.bin
(PID.TID 0000.0001)  MDSREADFIELDXZ: opening global file: OBN_Phy21_76x72x24_baltic_128.bin
(PID.TID 0000.0001)  MDSREADFIELDXZ: opening global file: OBN_Phy21_76x72x24_baltic_128.bin
(PID.TID 0000.0001)  MDSREADFIELDXZ: opening global file: OBN_Phy22_76x72x24_baltic_128.bin
(PID.TID 0000.0001)  MDSREADFIELDXZ: opening global file: OBN_Phy22_76x72x24_baltic_128.bin
(PID.TID 0000.0001)  MDSREADFIELDXZ: opening global file: OBN_Phy23_76x72x24_baltic_128.bin
(PID.TID 0000.0001)  MDSREADFIELDXZ: opening global file: OBN_Phy23_76x72x24_baltic_128.bin
(PID.TID 0000.0001)  MDSREADFIELDXZ: opening global file: OBN_Phy24_76x72x24_baltic_128.bin
(PID.TID 0000.0001)  MDSREADFIELDXZ: opening global file: OBN_Phy24_76x72x24_baltic_128.bin
(PID.TID 0000.0001)  MDSREADFIELDXZ: opening global file: OBN_Phy25_76x72x24_baltic_128.bin
(PID.TID 0000.0001)  MDSREADFIELDXZ: opening global file: OBN_Phy25_76x72x24_baltic_128.bin
(PID.TID 0000.0001)  MDSREADFIELDXZ: opening global file: OBN_Phy26_76x72x24_baltic_128.bin
(PID.TID 0000.0001)  MDSREADFIELDXZ: opening global file: OBN_Phy26_76x72x24_baltic_128.bin
(PID.TID 0000.0001)  MDSREADFIELDXZ: opening global file: OBN_Phy27_76x72x24_baltic_128.bin
(PID.TID 0000.0001)  MDSREADFIELDXZ: opening global file: OBN_Phy27_76x72x24_baltic_128.bin
(PID.TID 0000.0001)  MDSREADFIELDXZ: opening global file: OBN_Phy28_76x72x24_baltic_128.bin
(PID.TID 0000.0001)  MDSREADFIELDXZ: opening global file: OBN_Phy28_76x72x24_baltic_128.bin
(PID.TID 0000.0001)  MDSREADFIELDXZ: opening global file: OBN_Phy29_76x72x24_baltic_128.bin
(PID.TID 0000.0001)  MDSREADFIELDXZ: opening global file: OBN_Phy29_76x72x24_baltic_128.bin
(PID.TID 0000.0001)  MDSREADFIELDXZ: opening global file: OBN_Phy30_76x72x24_baltic_128.bin
(PID.TID 0000.0001)  MDSREADFIELDXZ: opening global file: OBN_Phy30_76x72x24_baltic_128.bin
(PID.TID 0000.0001)  MDSREADFIELDXZ: opening global file: OBN_Phy31_76x72x24_baltic_128.bin
(PID.TID 0000.0001)  MDSREADFIELDXZ: opening global file: OBN_Phy31_76x72x24_baltic_128.bin
(PID.TID 0000.0001)  MDSREADFIELDXZ: opening global file: OBN_Phy32_76x72x24_baltic_128.bin
(PID.TID 0000.0001)  MDSREADFIELDXZ: opening global file: OBN_Phy32_76x72x24_baltic_128.bin
(PID.TID 0000.0001)  MDSREADFIELDXZ: opening global file: OBN_Phy33_76x72x24_baltic_128.bin
(PID.TID 0000.0001)  MDSREADFIELDXZ: opening global file: OBN_Phy33_76x72x24_baltic_128.bin
(PID.TID 0000.0001)  MDSREADFIELDXZ: opening global file: OBN_Phy34_76x72x24_baltic_128.bin
(PID.TID 0000.0001)  MDSREADFIELDXZ: opening global file: OBN_Phy34_76x72x24_baltic_128.bin
(PID.TID 0000.0001)  MDSREADFIELDXZ: opening global file: OBN_Phy35_76x72x24_baltic_128.bin
(PID.TID 0000.0001)  MDSREADFIELDXZ: opening global file: OBN_Phy35_76x72x24_baltic_128.bin
(PID.TID 0000.0001)  MDSREADFIELDXZ: opening global file: OBN_Phy36_76x72x24_baltic_128.bin
(PID.TID 0000.0001)  MDSREADFIELDXZ: opening global file: OBN_Phy36_76x72x24_baltic_128.bin
(PID.TID 0000.0001)  MDSREADFIELDXZ: opening global file: OBN_Phy37_76x72x24_baltic_128.bin
(PID.TID 0000.0001)  MDSREADFIELDXZ: opening global file: OBN_Phy37_76x72x24_baltic_128.bin
(PID.TID 0000.0001)  MDSREADFIELDXZ: opening global file: OBN_Phy38_76x72x24_baltic_128.bin
(PID.TID 0000.0001)  MDSREADFIELDXZ: opening global file: OBN_Phy38_76x72x24_baltic_128.bin
(PID.TID 0000.0001)  MDSREADFIELDXZ: opening global file: OBN_Phy39_76x72x24_baltic_128.bin
(PID.TID 0000.0001)  MDSREADFIELDXZ: opening global file: OBN_Phy39_76x72x24_baltic_128.bin
(PID.TID 0000.0001)  MDSREADFIELDXZ: opening global file: OBN_Phy40_76x72x24_baltic_128.bin
(PID.TID 0000.0001)  MDSREADFIELDXZ: opening global file: OBN_Phy40_76x72x24_baltic_128.bin
(PID.TID 0000.0001)  MDSREADFIELDXZ: opening global file: OBN_Phy41_76x72x24_baltic_128.bin
(PID.TID 0000.0001)  MDSREADFIELDXZ: opening global file: OBN_Phy41_76x72x24_baltic_128.bin
(PID.TID 0000.0001)  MDSREADFIELDXZ: opening global file: OBN_Phy42_76x72x24_baltic_128.bin
(PID.TID 0000.0001)  MDSREADFIELDXZ: opening global file: OBN_Phy42_76x72x24_baltic_128.bin
(PID.TID 0000.0001)  MDSREADFIELDXZ: opening global file: OBN_Phy43_76x72x24_baltic_128.bin
(PID.TID 0000.0001)  MDSREADFIELDXZ: opening global file: OBN_Phy43_76x72x24_baltic_128.bin
(PID.TID 0000.0001)  MDSREADFIELDXZ: opening global file: OBN_Phy44_76x72x24_baltic_128.bin
(PID.TID 0000.0001)  MDSREADFIELDXZ: opening global file: OBN_Phy44_76x72x24_baltic_128.bin
(PID.TID 0000.0001)  MDSREADFIELDXZ: opening global file: OBN_Phy45_76x72x24_baltic_128.bin
(PID.TID 0000.0001)  MDSREADFIELDXZ: opening global file: OBN_Phy45_76x72x24_baltic_128.bin
(PID.TID 0000.0001)  MDSREADFIELDXZ: opening global file: OBN_Phy46_76x72x24_baltic_128.bin
(PID.TID 0000.0001)  MDSREADFIELDXZ: opening global file: OBN_Phy46_76x72x24_baltic_128.bin
(PID.TID 0000.0001)  MDSREADFIELDXZ: opening global file: OBN_Phy47_76x72x24_baltic_128.bin
(PID.TID 0000.0001)  MDSREADFIELDXZ: opening global file: OBN_Phy47_76x72x24_baltic_128.bin
(PID.TID 0000.0001)  MDSREADFIELDXZ: opening global file: OBN_Phy48_76x72x24_baltic_128.bin
(PID.TID 0000.0001)  MDSREADFIELDXZ: opening global file: OBN_Phy48_76x72x24_baltic_128.bin
(PID.TID 0000.0001)  MDSREADFIELDXZ: opening global file: OBN_Phy49_76x72x24_baltic_128.bin
(PID.TID 0000.0001)  MDSREADFIELDXZ: opening global file: OBN_Phy49_76x72x24_baltic_128.bin
(PID.TID 0000.0001)  MDSREADFIELDXZ: opening global file: OBN_Phy50_76x72x24_baltic_128.bin
(PID.TID 0000.0001)  MDSREADFIELDXZ: opening global file: OBN_Phy50_76x72x24_baltic_128.bin
(PID.TID 0000.0001)  MDSREADFIELDXZ: opening global file: OBN_Phy51_76x72x24_baltic_128.bin
(PID.TID 0000.0001)  MDSREADFIELDXZ: opening global file: OBN_Phy51_76x72x24_baltic_128.bin
(PID.TID 0000.0001)  MDSREADFIELDXZ: opening global file: OBN_Phy52_76x72x24_baltic_128.bin
(PID.TID 0000.0001)  MDSREADFIELDXZ: opening global file: OBN_Phy52_76x72x24_baltic_128.bin
(PID.TID 0000.0001)  MDSREADFIELDXZ: opening global file: OBN_Phy53_76x72x24_baltic_128.bin
(PID.TID 0000.0001)  MDSREADFIELDXZ: opening global file: OBN_Phy53_76x72x24_baltic_128.bin
(PID.TID 0000.0001)  MDSREADFIELDXZ: opening global file: OBN_Phy54_76x72x24_baltic_128.bin
(PID.TID 0000.0001)  MDSREADFIELDXZ: opening global file: OBN_Phy54_76x72x24_baltic_128.bin
(PID.TID 0000.0001)  MDSREADFIELDXZ: opening global file: OBN_Phy55_76x72x24_baltic_128.bin
(PID.TID 0000.0001)  MDSREADFIELDXZ: opening global file: OBN_Phy55_76x72x24_baltic_128.bin
(PID.TID 0000.0001)  MDSREADFIELDXZ: opening global file: OBN_Phy56_76x72x24_baltic_128.bin
(PID.TID 0000.0001)  MDSREADFIELDXZ: opening global file: OBN_Phy56_76x72x24_baltic_128.bin
(PID.TID 0000.0001)  MDSREADFIELDXZ: opening global file: OBN_Phy57_76x72x24_baltic_128.bin
(PID.TID 0000.0001)  MDSREADFIELDXZ: opening global file: OBN_Phy57_76x72x24_baltic_128.bin
(PID.TID 0000.0001)  MDSREADFIELDXZ: opening global file: OBN_Phy58_76x72x24_baltic_128.bin
(PID.TID 0000.0001)  MDSREADFIELDXZ: opening global file: OBN_Phy58_76x72x24_baltic_128.bin
(PID.TID 0000.0001)  MDSREADFIELDXZ: opening global file: OBN_Phy59_76x72x24_baltic_128.bin
(PID.TID 0000.0001)  MDSREADFIELDXZ: opening global file: OBN_Phy59_76x72x24_baltic_128.bin
(PID.TID 0000.0001)  MDSREADFIELDXZ: opening global file: OBN_Phy60_76x72x24_baltic_128.bin
(PID.TID 0000.0001)  MDSREADFIELDXZ: opening global file: OBN_Phy60_76x72x24_baltic_128.bin
(PID.TID 0000.0001)  MDSREADFIELDXZ: opening global file: OBN_Phy61_76x72x24_baltic_128.bin
(PID.TID 0000.0001)  MDSREADFIELDXZ: opening global file: OBN_Phy61_76x72x24_baltic_128.bin
(PID.TID 0000.0001)  MDSREADFIELDXZ: opening global file: OBN_Phy62_76x72x24_baltic_128.bin
(PID.TID 0000.0001)  MDSREADFIELDXZ: opening global file: OBN_Phy62_76x72x24_baltic_128.bin
(PID.TID 0000.0001)  MDSREADFIELDXZ: opening global file: OBN_Phy63_76x72x24_baltic_128.bin
(PID.TID 0000.0001)  MDSREADFIELDXZ: opening global file: OBN_Phy63_76x72x24_baltic_128.bin
(PID.TID 0000.0001)  MDSREADFIELDXZ: opening global file: OBN_Phy64_76x72x24_baltic_128.bin
(PID.TID 0000.0001)  MDSREADFIELDXZ: opening global file: OBN_Phy64_76x72x24_baltic_128.bin
(PID.TID 0000.0001)  MDSREADFIELDXZ: opening global file: OBN_Phy65_76x72x24_baltic_128.bin
(PID.TID 0000.0001)  MDSREADFIELDXZ: opening global file: OBN_Phy65_76x72x24_baltic_128.bin
(PID.TID 0000.0001)  MDSREADFIELDXZ: opening global file: OBN_Phy66_76x72x24_baltic_128.bin
(PID.TID 0000.0001)  MDSREADFIELDXZ: opening global file: OBN_Phy66_76x72x24_baltic_128.bin
(PID.TID 0000.0001)  MDSREADFIELDXZ: opening global file: OBN_Phy67_76x72x24_baltic_128.bin
(PID.TID 0000.0001)  MDSREADFIELDXZ: opening global file: OBN_Phy67_76x72x24_baltic_128.bin
(PID.TID 0000.0001)  MDSREADFIELDXZ: opening global file: OBN_Phy68_76x72x24_baltic_128.bin
(PID.TID 0000.0001)  MDSREADFIELDXZ: opening global file: OBN_Phy68_76x72x24_baltic_128.bin
(PID.TID 0000.0001)  MDSREADFIELDXZ: opening global file: OBN_Phy69_76x72x24_baltic_128.bin
(PID.TID 0000.0001)  MDSREADFIELDXZ: opening global file: OBN_Phy69_76x72x24_baltic_128.bin
(PID.TID 0000.0001)  MDSREADFIELDXZ: opening global file: OBN_Phy70_76x72x24_baltic_128.bin
(PID.TID 0000.0001)  MDSREADFIELDXZ: opening global file: OBN_Phy70_76x72x24_baltic_128.bin
(PID.TID 0000.0001)  MDSREADFIELDXZ: opening global file: OBN_Phy71_76x72x24_baltic_128.bin
(PID.TID 0000.0001)  MDSREADFIELDXZ: opening global file: OBN_Phy71_76x72x24_baltic_128.bin
(PID.TID 0000.0001)  MDSREADFIELDXZ: opening global file: OBN_Phy72_76x72x24_baltic_128.bin
(PID.TID 0000.0001)  MDSREADFIELDXZ: opening global file: OBN_Phy72_76x72x24_baltic_128.bin
(PID.TID 0000.0001)  MDSREADFIELDXZ: opening global file: OBN_Phy73_76x72x24_baltic_128.bin
(PID.TID 0000.0001)  MDSREADFIELDXZ: opening global file: OBN_Phy73_76x72x24_baltic_128.bin
(PID.TID 0000.0001)  MDSREADFIELDXZ: opening global file: OBN_Phy74_76x72x24_baltic_128.bin
(PID.TID 0000.0001)  MDSREADFIELDXZ: opening global file: OBN_Phy74_76x72x24_baltic_128.bin
(PID.TID 0000.0001)  MDSREADFIELDXZ: opening global file: OBN_Phy75_76x72x24_baltic_128.bin
(PID.TID 0000.0001)  MDSREADFIELDXZ: opening global file: OBN_Phy75_76x72x24_baltic_128.bin
(PID.TID 0000.0001)  MDSREADFIELDXZ: opening global file: OBN_Phy76_76x72x24_baltic_128.bin
(PID.TID 0000.0001)  MDSREADFIELDXZ: opening global file: OBN_Phy76_76x72x24_baltic_128.bin
(PID.TID 0000.0001)  MDSREADFIELDXZ: opening global file: OBN_Phy77_76x72x24_baltic_128.bin
(PID.TID 0000.0001)  MDSREADFIELDXZ: opening global file: OBN_Phy77_76x72x24_baltic_128.bin
(PID.TID 0000.0001)  MDSREADFIELDXZ: opening global file: OBN_Phy78_76x72x24_baltic_128.bin
(PID.TID 0000.0001)  MDSREADFIELDXZ: opening global file: OBN_Phy78_76x72x24_baltic_128.bin
(PID.TID 0000.0001)  MDSREADFIELDYZ: opening global file: OBWu_baltic_76x72.bin
(PID.TID 0000.0001)  MDSREADFIELDYZ: opening global file: OBWu_baltic_76x72.bin
(PID.TID 0000.0001)  MDSREADFIELDYZ: opening global file: OBWv_baltic_76x72.bin
(PID.TID 0000.0001)  MDSREADFIELDYZ: opening global file: OBWv_baltic_76x72.bin
(PID.TID 0000.0001)  MDSREADFIELDYZ: opening global file: OBWt_baltic_76x72.stable
(PID.TID 0000.0001)  MDSREADFIELDYZ: opening global file: OBWt_baltic_76x72.stable
(PID.TID 0000.0001)  MDSREADFIELDYZ: opening global file: OBWs_baltic_76x72.stable
(PID.TID 0000.0001)  MDSREADFIELDYZ: opening global file: OBWs_baltic_76x72.stable
(PID.TID 0000.0001)  MDSREADFIELDYZ: opening global file: OBW_PO4_76x72x24_baltic_128.bin
(PID.TID 0000.0001)  MDSREADFIELDYZ: opening global file: OBW_PO4_76x72x24_baltic_128.bin
(PID.TID 0000.0001)  MDSREADFIELDYZ: opening global file: OBW_NO3_76x72x24_baltic_128.bin
(PID.TID 0000.0001)  MDSREADFIELDYZ: opening global file: OBW_NO3_76x72x24_baltic_128.bin
(PID.TID 0000.0001)  MDSREADFIELDYZ: opening global file: OBW_FeT_76x72x24_baltic_128.bin
(PID.TID 0000.0001)  MDSREADFIELDYZ: opening global file: OBW_FeT_76x72x24_baltic_128.bin
(PID.TID 0000.0001)  MDSREADFIELDYZ: opening global file: OBW_SiO2_76x72x24_baltic_128.bin
(PID.TID 0000.0001)  MDSREADFIELDYZ: opening global file: OBW_SiO2_76x72x24_baltic_128.bin
(PID.TID 0000.0001)  MDSREADFIELDYZ: opening global file: OBW_DOP_76x72x24_baltic_128.bin
(PID.TID 0000.0001)  MDSREADFIELDYZ: opening global file: OBW_DOP_76x72x24_baltic_128.bin
(PID.TID 0000.0001)  MDSREADFIELDYZ: opening global file: OBW_DON_76x72x24_baltic_128.bin
(PID.TID 0000.0001)  MDSREADFIELDYZ: opening global file: OBW_DON_76x72x24_baltic_128.bin
(PID.TID 0000.0001)  MDSREADFIELDYZ: opening global file: OBW_DOFe_76x72x24_baltic_128.bin
(PID.TID 0000.0001)  MDSREADFIELDYZ: opening global file: OBW_DOFe_76x72x24_baltic_128.bin
(PID.TID 0000.0001)  MDSREADFIELDYZ: opening global file: OBW_ZOO1P_76x72x24_baltic_128.bin
(PID.TID 0000.0001)  MDSREADFIELDYZ: opening global file: OBW_ZOO1P_76x72x24_baltic_128.bin
(PID.TID 0000.0001)  MDSREADFIELDYZ: opening global file: OBW_ZOO1N_76x72x24_baltic_128.bin
(PID.TID 0000.0001)  MDSREADFIELDYZ: opening global file: OBW_ZOO1N_76x72x24_baltic_128.bin
(PID.TID 0000.0001)  MDSREADFIELDYZ: opening global file: OBW_ZOO1Fe_76x72x24_baltic_128.bin
(PID.TID 0000.0001)  MDSREADFIELDYZ: opening global file: OBW_ZOO1Fe_76x72x24_baltic_128.bin
(PID.TID 0000.0001)  MDSREADFIELDYZ: opening global file: OBW_ZOO1Si_76x72x24_baltic_128.bin
(PID.TID 0000.0001)  MDSREADFIELDYZ: opening global file: OBW_ZOO1Si_76x72x24_baltic_128.bin
(PID.TID 0000.0001)  MDSREADFIELDYZ: opening global file: OBW_ZOO2P_76x72x24_baltic_128.bin
(PID.TID 0000.0001)  MDSREADFIELDYZ: opening global file: OBW_ZOO2P_76x72x24_baltic_128.bin
(PID.TID 0000.0001)  MDSREADFIELDYZ: opening global file: OBW_ZOO2N_76x72x24_baltic_128.bin
(PID.TID 0000.0001)  MDSREADFIELDYZ: opening global file: OBW_ZOO2N_76x72x24_baltic_128.bin
(PID.TID 0000.0001)  MDSREADFIELDYZ: opening global file: OBW_ZOO2Fe_76x72x24_baltic_128.bin
(PID.TID 0000.0001)  MDSREADFIELDYZ: opening global file: OBW_ZOO2Fe_76x72x24_baltic_128.bin
(PID.TID 0000.0001)  MDSREADFIELDYZ: opening global file: OBW_ZOO2Si_76x72x24_baltic_128.bin
(PID.TID 0000.0001)  MDSREADFIELDYZ: opening global file: OBW_ZOO2Si_76x72x24_baltic_128.bin
(PID.TID 0000.0001)  MDSREADFIELDYZ: opening global file: OBW_POP_76x72x24_baltic_128.bin
(PID.TID 0000.0001)  MDSREADFIELDYZ: opening global file: OBW_POP_76x72x24_baltic_128.bin
(PID.TID 0000.0001)  MDSREADFIELDYZ: opening global file: OBW_PON_76x72x24_baltic_128.bin
(PID.TID 0000.0001)  MDSREADFIELDYZ: opening global file: OBW_PON_76x72x24_baltic_128.bin
(PID.TID 0000.0001)  MDSREADFIELDYZ: opening global file: OBW_POFe_76x72x24_baltic_128.bin
(PID.TID 0000.0001)  MDSREADFIELDYZ: opening global file: OBW_POFe_76x72x24_baltic_128.bin
(PID.TID 0000.0001)  MDSREADFIELDYZ: opening global file: OBW_POSi_76x72x24_baltic_128.bin
(PID.TID 0000.0001)  MDSREADFIELDYZ: opening global file: OBW_POSi_76x72x24_baltic_128.bin
(PID.TID 0000.0001)  MDSREADFIELDYZ: opening global file: OBW_NH4_76x72x24_baltic_128.bin
(PID.TID 0000.0001)  MDSREADFIELDYZ: opening global file: OBW_NH4_76x72x24_baltic_128.bin
(PID.TID 0000.0001)  MDSREADFIELDYZ: opening global file: OBW_NO2_76x72x24_baltic_128.bin
(PID.TID 0000.0001)  MDSREADFIELDYZ: opening global file: OBW_NO2_76x72x24_baltic_128.bin
(PID.TID 0000.0001)  MDSREADFIELDYZ: opening global file: OBW_Phy01_76x72x24_baltic_128.bin
(PID.TID 0000.0001)  MDSREADFIELDYZ: opening global file: OBW_Phy01_76x72x24_baltic_128.bin
(PID.TID 0000.0001)  MDSREADFIELDYZ: opening global file: OBW_Phy02_76x72x24_baltic_128.bin
(PID.TID 0000.0001)  MDSREADFIELDYZ: opening global file: OBW_Phy02_76x72x24_baltic_128.bin
(PID.TID 0000.0001)  MDSREADFIELDYZ: opening global file: OBW_Phy03_76x72x24_baltic_128.bin
(PID.TID 0000.0001)  MDSREADFIELDYZ: opening global file: OBW_Phy03_76x72x24_baltic_128.bin
(PID.TID 0000.0001)  MDSREADFIELDYZ: opening global file: OBW_Phy04_76x72x24_baltic_128.bin
(PID.TID 0000.0001)  MDSREADFIELDYZ: opening global file: OBW_Phy04_76x72x24_baltic_128.bin
(PID.TID 0000.0001)  MDSREADFIELDYZ: opening global file: OBW_Phy05_76x72x24_baltic_128.bin
(PID.TID 0000.0001)  MDSREADFIELDYZ: opening global file: OBW_Phy05_76x72x24_baltic_128.bin
(PID.TID 0000.0001)  MDSREADFIELDYZ: opening global file: OBW_Phy06_76x72x24_baltic_128.bin
(PID.TID 0000.0001)  MDSREADFIELDYZ: opening global file: OBW_Phy06_76x72x24_baltic_128.bin
(PID.TID 0000.0001)  MDSREADFIELDYZ: opening global file: OBW_Phy07_76x72x24_baltic_128.bin
(PID.TID 0000.0001)  MDSREADFIELDYZ: opening global file: OBW_Phy07_76x72x24_baltic_128.bin
(PID.TID 0000.0001)  MDSREADFIELDYZ: opening global file: OBW_Phy08_76x72x24_baltic_128.bin
(PID.TID 0000.0001)  MDSREADFIELDYZ: opening global file: OBW_Phy08_76x72x24_baltic_128.bin
(PID.TID 0000.0001)  MDSREADFIELDYZ: opening global file: OBW_Phy09_76x72x24_baltic_128.bin
(PID.TID 0000.0001)  MDSREADFIELDYZ: opening global file: OBW_Phy09_76x72x24_baltic_128.bin
(PID.TID 0000.0001)  MDSREADFIELDYZ: opening global file: OBW_Phy10_76x72x24_baltic_128.bin
(PID.TID 0000.0001)  MDSREADFIELDYZ: opening global file: OBW_Phy10_76x72x24_baltic_128.bin
(PID.TID 0000.0001)  MDSREADFIELDYZ: opening global file: OBW_Phy11_76x72x24_baltic_128.bin
(PID.TID 0000.0001)  MDSREADFIELDYZ: opening global file: OBW_Phy11_76x72x24_baltic_128.bin
(PID.TID 0000.0001)  MDSREADFIELDYZ: opening global file: OBW_Phy12_76x72x24_baltic_128.bin
(PID.TID 0000.0001)  MDSREADFIELDYZ: opening global file: OBW_Phy12_76x72x24_baltic_128.bin
(PID.TID 0000.0001)  MDSREADFIELDYZ: opening global file: OBW_Phy13_76x72x24_baltic_128.bin
(PID.TID 0000.0001)  MDSREADFIELDYZ: opening global file: OBW_Phy13_76x72x24_baltic_128.bin
(PID.TID 0000.0001)  MDSREADFIELDYZ: opening global file: OBW_Phy14_76x72x24_baltic_128.bin
(PID.TID 0000.0001)  MDSREADFIELDYZ: opening global file: OBW_Phy14_76x72x24_baltic_128.bin
(PID.TID 0000.0001)  MDSREADFIELDYZ: opening global file: OBW_Phy15_76x72x24_baltic_128.bin
(PID.TID 0000.0001)  MDSREADFIELDYZ: opening global file: OBW_Phy15_76x72x24_baltic_128.bin
(PID.TID 0000.0001)  MDSREADFIELDYZ: opening global file: OBW_Phy16_76x72x24_baltic_128.bin
(PID.TID 0000.0001)  MDSREADFIELDYZ: opening global file: OBW_Phy16_76x72x24_baltic_128.bin
(PID.TID 0000.0001)  MDSREADFIELDYZ: opening global file: OBW_Phy17_76x72x24_baltic_128.bin
(PID.TID 0000.0001)  MDSREADFIELDYZ: opening global file: OBW_Phy17_76x72x24_baltic_128.bin
(PID.TID 0000.0001)  MDSREADFIELDYZ: opening global file: OBW_Phy18_76x72x24_baltic_128.bin
(PID.TID 0000.0001)  MDSREADFIELDYZ: opening global file: OBW_Phy18_76x72x24_baltic_128.bin
(PID.TID 0000.0001)  MDSREADFIELDYZ: opening global file: OBW_Phy19_76x72x24_baltic_128.bin
(PID.TID 0000.0001)  MDSREADFIELDYZ: opening global file: OBW_Phy19_76x72x24_baltic_128.bin
(PID.TID 0000.0001)  MDSREADFIELDYZ: opening global file: OBW_Phy20_76x72x24_baltic_128.bin
(PID.TID 0000.0001)  MDSREADFIELDYZ: opening global file: OBW_Phy20_76x72x24_baltic_128.bin
(PID.TID 0000.0001)  MDSREADFIELDYZ: opening global file: OBW_Phy21_76x72x24_baltic_128.bin
(PID.TID 0000.0001)  MDSREADFIELDYZ: opening global file: OBW_Phy21_76x72x24_baltic_128.bin
(PID.TID 0000.0001)  MDSREADFIELDYZ: opening global file: OBW_Phy22_76x72x24_baltic_128.bin
(PID.TID 0000.0001)  MDSREADFIELDYZ: opening global file: OBW_Phy22_76x72x24_baltic_128.bin
(PID.TID 0000.0001)  MDSREADFIELDYZ: opening global file: OBW_Phy23_76x72x24_baltic_128.bin
(PID.TID 0000.0001)  MDSREADFIELDYZ: opening global file: OBW_Phy23_76x72x24_baltic_128.bin
(PID.TID 0000.0001)  MDSREADFIELDYZ: opening global file: OBW_Phy24_76x72x24_baltic_128.bin
(PID.TID 0000.0001)  MDSREADFIELDYZ: opening global file: OBW_Phy24_76x72x24_baltic_128.bin
(PID.TID 0000.0001)  MDSREADFIELDYZ: opening global file: OBW_Phy25_76x72x24_baltic_128.bin
(PID.TID 0000.0001)  MDSREADFIELDYZ: opening global file: OBW_Phy25_76x72x24_baltic_128.bin
(PID.TID 0000.0001)  MDSREADFIELDYZ: opening global file: OBW_Phy26_76x72x24_baltic_128.bin
(PID.TID 0000.0001)  MDSREADFIELDYZ: opening global file: OBW_Phy26_76x72x24_baltic_128.bin
(PID.TID 0000.0001)  MDSREADFIELDYZ: opening global file: OBW_Phy27_76x72x24_baltic_128.bin
(PID.TID 0000.0001)  MDSREADFIELDYZ: opening global file: OBW_Phy27_76x72x24_baltic_128.bin
(PID.TID 0000.0001)  MDSREADFIELDYZ: opening global file: OBW_Phy28_76x72x24_baltic_128.bin
(PID.TID 0000.0001)  MDSREADFIELDYZ: opening global file: OBW_Phy28_76x72x24_baltic_128.bin
(PID.TID 0000.0001)  MDSREADFIELDYZ: opening global file: OBW_Phy29_76x72x24_baltic_128.bin
(PID.TID 0000.0001)  MDSREADFIELDYZ: opening global file: OBW_Phy29_76x72x24_baltic_128.bin
(PID.TID 0000.0001)  MDSREADFIELDYZ: opening global file: OBW_Phy30_76x72x24_baltic_128.bin
(PID.TID 0000.0001)  MDSREADFIELDYZ: opening global file: OBW_Phy30_76x72x24_baltic_128.bin
(PID.TID 0000.0001)  MDSREADFIELDYZ: opening global file: OBW_Phy31_76x72x24_baltic_128.bin
(PID.TID 0000.0001)  MDSREADFIELDYZ: opening global file: OBW_Phy31_76x72x24_baltic_128.bin
(PID.TID 0000.0001)  MDSREADFIELDYZ: opening global file: OBW_Phy32_76x72x24_baltic_128.bin
(PID.TID 0000.0001)  MDSREADFIELDYZ: opening global file: OBW_Phy32_76x72x24_baltic_128.bin
(PID.TID 0000.0001)  MDSREADFIELDYZ: opening global file: OBW_Phy33_76x72x24_baltic_128.bin
(PID.TID 0000.0001)  MDSREADFIELDYZ: opening global file: OBW_Phy33_76x72x24_baltic_128.bin
(PID.TID 0000.0001)  MDSREADFIELDYZ: opening global file: OBW_Phy34_76x72x24_baltic_128.bin
(PID.TID 0000.0001)  MDSREADFIELDYZ: opening global file: OBW_Phy34_76x72x24_baltic_128.bin
(PID.TID 0000.0001)  MDSREADFIELDYZ: opening global file: OBW_Phy35_76x72x24_baltic_128.bin
(PID.TID 0000.0001)  MDSREADFIELDYZ: opening global file: OBW_Phy35_76x72x24_baltic_128.bin
(PID.TID 0000.0001)  MDSREADFIELDYZ: opening global file: OBW_Phy36_76x72x24_baltic_128.bin
(PID.TID 0000.0001)  MDSREADFIELDYZ: opening global file: OBW_Phy36_76x72x24_baltic_128.bin
(PID.TID 0000.0001)  MDSREADFIELDYZ: opening global file: OBW_Phy37_76x72x24_baltic_128.bin
(PID.TID 0000.0001)  MDSREADFIELDYZ: opening global file: OBW_Phy37_76x72x24_baltic_128.bin
(PID.TID 0000.0001)  MDSREADFIELDYZ: opening global file: OBW_Phy38_76x72x24_baltic_128.bin
(PID.TID 0000.0001)  MDSREADFIELDYZ: opening global file: OBW_Phy38_76x72x24_baltic_128.bin
(PID.TID 0000.0001)  MDSREADFIELDYZ: opening global file: OBW_Phy39_76x72x24_baltic_128.bin
(PID.TID 0000.0001)  MDSREADFIELDYZ: opening global file: OBW_Phy39_76x72x24_baltic_128.bin
(PID.TID 0000.0001)  MDSREADFIELDYZ: opening global file: OBW_Phy40_76x72x24_baltic_128.bin
(PID.TID 0000.0001)  MDSREADFIELDYZ: opening global file: OBW_Phy40_76x72x24_baltic_128.bin
(PID.TID 0000.0001)  MDSREADFIELDYZ: opening global file: OBW_Phy41_76x72x24_baltic_128.bin
(PID.TID 0000.0001)  MDSREADFIELDYZ: opening global file: OBW_Phy41_76x72x24_baltic_128.bin
(PID.TID 0000.0001)  MDSREADFIELDYZ: opening global file: OBW_Phy42_76x72x24_baltic_128.bin
(PID.TID 0000.0001)  MDSREADFIELDYZ: opening global file: OBW_Phy42_76x72x24_baltic_128.bin
(PID.TID 0000.0001)  MDSREADFIELDYZ: opening global file: OBW_Phy43_76x72x24_baltic_128.bin
(PID.TID 0000.0001)  MDSREADFIELDYZ: opening global file: OBW_Phy43_76x72x24_baltic_128.bin
(PID.TID 0000.0001)  MDSREADFIELDYZ: opening global file: OBW_Phy44_76x72x24_baltic_128.bin
(PID.TID 0000.0001)  MDSREADFIELDYZ: opening global file: OBW_Phy44_76x72x24_baltic_128.bin
(PID.TID 0000.0001)  MDSREADFIELDYZ: opening global file: OBW_Phy45_76x72x24_baltic_128.bin
(PID.TID 0000.0001)  MDSREADFIELDYZ: opening global file: OBW_Phy45_76x72x24_baltic_128.bin
(PID.TID 0000.0001)  MDSREADFIELDYZ: opening global file: OBW_Phy46_76x72x24_baltic_128.bin
(PID.TID 0000.0001)  MDSREADFIELDYZ: opening global file: OBW_Phy46_76x72x24_baltic_128.bin
(PID.TID 0000.0001)  MDSREADFIELDYZ: opening global file: OBW_Phy47_76x72x24_baltic_128.bin
(PID.TID 0000.0001)  MDSREADFIELDYZ: opening global file: OBW_Phy47_76x72x24_baltic_128.bin
(PID.TID 0000.0001)  MDSREADFIELDYZ: opening global file: OBW_Phy48_76x72x24_baltic_128.bin
(PID.TID 0000.0001)  MDSREADFIELDYZ: opening global file: OBW_Phy48_76x72x24_baltic_128.bin
(PID.TID 0000.0001)  MDSREADFIELDYZ: opening global file: OBW_Phy49_76x72x24_baltic_128.bin
(PID.TID 0000.0001)  MDSREADFIELDYZ: opening global file: OBW_Phy49_76x72x24_baltic_128.bin
(PID.TID 0000.0001)  MDSREADFIELDYZ: opening global file: OBW_Phy50_76x72x24_baltic_128.bin
(PID.TID 0000.0001)  MDSREADFIELDYZ: opening global file: OBW_Phy50_76x72x24_baltic_128.bin
(PID.TID 0000.0001)  MDSREADFIELDYZ: opening global file: OBW_Phy51_76x72x24_baltic_128.bin
(PID.TID 0000.0001)  MDSREADFIELDYZ: opening global file: OBW_Phy51_76x72x24_baltic_128.bin
(PID.TID 0000.0001)  MDSREADFIELDYZ: opening global file: OBW_Phy52_76x72x24_baltic_128.bin
(PID.TID 0000.0001)  MDSREADFIELDYZ: opening global file: OBW_Phy52_76x72x24_baltic_128.bin
(PID.TID 0000.0001)  MDSREADFIELDYZ: opening global file: OBW_Phy53_76x72x24_baltic_128.bin
(PID.TID 0000.0001)  MDSREADFIELDYZ: opening global file: OBW_Phy53_76x72x24_baltic_128.bin
(PID.TID 0000.0001)  MDSREADFIELDYZ: opening global file: OBW_Phy54_76x72x24_baltic_128.bin
(PID.TID 0000.0001)  MDSREADFIELDYZ: opening global file: OBW_Phy54_76x72x24_baltic_128.bin
(PID.TID 0000.0001)  MDSREADFIELDYZ: opening global file: OBW_Phy55_76x72x24_baltic_128.bin
(PID.TID 0000.0001)  MDSREADFIELDYZ: opening global file: OBW_Phy55_76x72x24_baltic_128.bin
(PID.TID 0000.0001)  MDSREADFIELDYZ: opening global file: OBW_Phy56_76x72x24_baltic_128.bin
(PID.TID 0000.0001)  MDSREADFIELDYZ: opening global file: OBW_Phy56_76x72x24_baltic_128.bin
(PID.TID 0000.0001)  MDSREADFIELDYZ: opening global file: OBW_Phy57_76x72x24_baltic_128.bin
(PID.TID 0000.0001)  MDSREADFIELDYZ: opening global file: OBW_Phy57_76x72x24_baltic_128.bin
(PID.TID 0000.0001)  MDSREADFIELDYZ: opening global file: OBW_Phy58_76x72x24_baltic_128.bin
(PID.TID 0000.0001)  MDSREADFIELDYZ: opening global file: OBW_Phy58_76x72x24_baltic_128.bin
(PID.TID 0000.0001)  MDSREADFIELDYZ: opening global file: OBW_Phy59_76x72x24_baltic_128.bin
(PID.TID 0000.0001)  MDSREADFIELDYZ: opening global file: OBW_Phy59_76x72x24_baltic_128.bin
(PID.TID 0000.0001)  MDSREADFIELDYZ: opening global file: OBW_Phy60_76x72x24_baltic_128.bin
(PID.TID 0000.0001)  MDSREADFIELDYZ: opening global file: OBW_Phy60_76x72x24_baltic_128.bin
(PID.TID 0000.0001)  MDSREADFIELDYZ: opening global file: OBW_Phy61_76x72x24_baltic_128.bin
(PID.TID 0000.0001)  MDSREADFIELDYZ: opening global file: OBW_Phy61_76x72x24_baltic_128.bin
(PID.TID 0000.0001)  MDSREADFIELDYZ: opening global file: OBW_Phy62_76x72x24_baltic_128.bin
(PID.TID 0000.0001)  MDSREADFIELDYZ: opening global file: OBW_Phy62_76x72x24_baltic_128.bin
(PID.TID 0000.0001)  MDSREADFIELDYZ: opening global file: OBW_Phy63_76x72x24_baltic_128.bin
(PID.TID 0000.0001)  MDSREADFIELDYZ: opening global file: OBW_Phy63_76x72x24_baltic_128.bin
(PID.TID 0000.0001)  MDSREADFIELDYZ: opening global file: OBW_Phy64_76x72x24_baltic_128.bin
(PID.TID 0000.0001)  MDSREADFIELDYZ: opening global file: OBW_Phy64_76x72x24_baltic_128.bin
(PID.TID 0000.0001)  MDSREADFIELDYZ: opening global file: OBW_Phy65_76x72x24_baltic_128.bin
(PID.TID 0000.0001)  MDSREADFIELDYZ: opening global file: OBW_Phy65_76x72x24_baltic_128.bin
(PID.TID 0000.0001)  MDSREADFIELDYZ: opening global file: OBW_Phy66_76x72x24_baltic_128.bin
(PID.TID 0000.0001)  MDSREADFIELDYZ: opening global file: OBW_Phy66_76x72x24_baltic_128.bin
(PID.TID 0000.0001)  MDSREADFIELDYZ: opening global file: OBW_Phy67_76x72x24_baltic_128.bin
(PID.TID 0000.0001)  MDSREADFIELDYZ: opening global file: OBW_Phy67_76x72x24_baltic_128.bin
(PID.TID 0000.0001)  MDSREADFIELDYZ: opening global file: OBW_Phy68_76x72x24_baltic_128.bin
(PID.TID 0000.0001)  MDSREADFIELDYZ: opening global file: OBW_Phy68_76x72x24_baltic_128.bin
(PID.TID 0000.0001)  MDSREADFIELDYZ: opening global file: OBW_Phy69_76x72x24_baltic_128.bin
(PID.TID 0000.0001)  MDSREADFIELDYZ: opening global file: OBW_Phy69_76x72x24_baltic_128.bin
(PID.TID 0000.0001)  MDSREADFIELDYZ: opening global file: OBW_Phy70_76x72x24_baltic_128.bin
(PID.TID 0000.0001)  MDSREADFIELDYZ: opening global file: OBW_Phy70_76x72x24_baltic_128.bin
(PID.TID 0000.0001)  MDSREADFIELDYZ: opening global file: OBW_Phy71_76x72x24_baltic_128.bin
(PID.TID 0000.0001)  MDSREADFIELDYZ: opening global file: OBW_Phy71_76x72x24_baltic_128.bin
(PID.TID 0000.0001)  MDSREADFIELDYZ: opening global file: OBW_Phy72_76x72x24_baltic_128.bin
(PID.TID 0000.0001)  MDSREADFIELDYZ: opening global file: OBW_Phy72_76x72x24_baltic_128.bin
(PID.TID 0000.0001)  MDSREADFIELDYZ: opening global file: OBW_Phy73_76x72x24_baltic_128.bin
(PID.TID 0000.0001)  MDSREADFIELDYZ: opening global file: OBW_Phy73_76x72x24_baltic_128.bin
(PID.TID 0000.0001)  MDSREADFIELDYZ: opening global file: OBW_Phy74_76x72x24_baltic_128.bin
(PID.TID 0000.0001)  MDSREADFIELDYZ: opening global file: OBW_Phy74_76x72x24_baltic_128.bin
(PID.TID 0000.0001)  MDSREADFIELDYZ: opening global file: OBW_Phy75_76x72x24_baltic_128.bin
(PID.TID 0000.0001)  MDSREADFIELDYZ: opening global file: OBW_Phy75_76x72x24_baltic_128.bin
(PID.TID 0000.0001)  MDSREADFIELDYZ: opening global file: OBW_Phy76_76x72x24_baltic_128.bin
(PID.TID 0000.0001)  MDSREADFIELDYZ: opening global file: OBW_Phy76_76x72x24_baltic_128.bin
(PID.TID 0000.0001)  MDSREADFIELDYZ: opening global file: OBW_Phy77_76x72x24_baltic_128.bin
(PID.TID 0000.0001)  MDSREADFIELDYZ: opening global file: OBW_Phy77_76x72x24_baltic_128.bin
(PID.TID 0000.0001)  MDSREADFIELDYZ: opening global file: OBW_Phy78_76x72x24_baltic_128.bin
(PID.TID 0000.0001)  MDSREADFIELDYZ: opening global file: OBW_Phy78_76x72x24_baltic_128.bin
(PID.TID 0000.0001) // =======================================================
(PID.TID 0000.0001) // Model current state
(PID.TID 0000.0001) // =======================================================
(PID.TID 0000.0001) 
(PID.TID 0000.0001) // =======================================================
(PID.TID 0000.0001) // Begin MONITOR dynamic field statistics
(PID.TID 0000.0001) // =======================================================
(PID.TID 0000.0001) %MON time_tsnumber                =                188388
(PID.TID 0000.0001) %MON time_secondsf                =   2.2606560000000E+08
(PID.TID 0000.0001) %MON dynstat_eta_max              =   6.7857206100959E-01
(PID.TID 0000.0001) %MON dynstat_eta_min              =   0.0000000000000E+00
(PID.TID 0000.0001) %MON dynstat_eta_mean             =   3.6390969960959E-01
(PID.TID 0000.0001) %MON dynstat_eta_sd               =   1.6232535009770E-01
(PID.TID 0000.0001) %MON dynstat_eta_del2             =   7.0936928426410E-03
(PID.TID 0000.0001) %MON dynstat_uvel_max             =   4.1043654315727E-01
(PID.TID 0000.0001) %MON dynstat_uvel_min             =  -3.3404372355546E-01
(PID.TID 0000.0001) %MON dynstat_uvel_mean            =   7.7273854522682E-03
(PID.TID 0000.0001) %MON dynstat_uvel_sd              =   6.1545954392372E-02
(PID.TID 0000.0001) %MON dynstat_uvel_del2            =   1.7969533634717E-02
(PID.TID 0000.0001) %MON dynstat_vvel_max             =   2.8285402026493E-01
(PID.TID 0000.0001) %MON dynstat_vvel_min             =  -4.5228332030971E-01
(PID.TID 0000.0001) %MON dynstat_vvel_mean            =   1.7991211337940E-03
(PID.TID 0000.0001) %MON dynstat_vvel_sd              =   6.4619702741697E-02
(PID.TID 0000.0001) %MON dynstat_vvel_del2            =   1.9550985009984E-02
(PID.TID 0000.0001) %MON dynstat_wvel_max             =   4.9575213564628E-04
(PID.TID 0000.0001) %MON dynstat_wvel_min             =  -5.0890006120395E-04
(PID.TID 0000.0001) %MON dynstat_wvel_mean            =  -2.5794826425794E-06
(PID.TID 0000.0001) %MON dynstat_wvel_sd              =   7.5058861345140E-05
(PID.TID 0000.0001) %MON dynstat_wvel_del2            =   3.0109913706110E-05
(PID.TID 0000.0001) %MON dynstat_theta_max            =   7.9698650573136E+00
(PID.TID 0000.0001) %MON dynstat_theta_min            =  -1.6138727636085E+00
(PID.TID 0000.0001) %MON dynstat_theta_mean           =   3.8274049689683E+00
(PID.TID 0000.0001) %MON dynstat_theta_sd             =   2.2090745717429E+00
(PID.TID 0000.0001) %MON dynstat_theta_del2           =   1.1602948050490E-01
(PID.TID 0000.0001) %MON dynstat_salt_max             =   3.4929540446547E+01
(PID.TID 0000.0001) %MON dynstat_salt_min             =   5.6521891769462E+00
(PID.TID 0000.0001) %MON dynstat_salt_mean            =   1.5735569917659E+01
(PID.TID 0000.0001) %MON dynstat_salt_sd              =   1.2130153572645E+01
(PID.TID 0000.0001) %MON dynstat_salt_del2            =   5.1578385797229E-02
(PID.TID 0000.0001) %MON extforcing_qnet_max          =   0.0000000000000E+00
(PID.TID 0000.0001) %MON extforcing_qnet_min          =   0.0000000000000E+00
(PID.TID 0000.0001) %MON extforcing_qnet_mean         =   0.0000000000000E+00
(PID.TID 0000.0001) %MON extforcing_qnet_sd           =   0.0000000000000E+00
(PID.TID 0000.0001) %MON extforcing_qnet_del2         =   0.0000000000000E+00
(PID.TID 0000.0001) %MON extforcing_qsw_max           =   0.0000000000000E+00
(PID.TID 0000.0001) %MON extforcing_qsw_min           =   0.0000000000000E+00
(PID.TID 0000.0001) %MON extforcing_qsw_mean          =   0.0000000000000E+00
(PID.TID 0000.0001) %MON extforcing_qsw_sd            =   0.0000000000000E+00
(PID.TID 0000.0001) %MON extforcing_qsw_del2          =   0.0000000000000E+00
(PID.TID 0000.0001) %MON extforcing_empmr_max         =   0.0000000000000E+00
(PID.TID 0000.0001) %MON extforcing_empmr_min         =   0.0000000000000E+00
(PID.TID 0000.0001) %MON extforcing_empmr_mean        =   0.0000000000000E+00
(PID.TID 0000.0001) %MON extforcing_empmr_sd          =   0.0000000000000E+00
(PID.TID 0000.0001) %MON extforcing_empmr_del2        =   0.0000000000000E+00
(PID.TID 0000.0001) %MON advcfl_uvel_max              =   2.3317424706639E-02
(PID.TID 0000.0001) %MON advcfl_vvel_max              =   3.3222803653596E-02
(PID.TID 0000.0001) %MON advcfl_wvel_max              =   5.9490256277553E-02
(PID.TID 0000.0001) %MON advcfl_W_hf_max              =   5.9490256277553E-02
(PID.TID 0000.0001) %MON pe_b_mean                    =   1.3469817979190E-02
(PID.TID 0000.0001) %MON ke_max                       =   1.1199894577682E-01
(PID.TID 0000.0001) %MON ke_mean                      =   3.2420295793758E-03
(PID.TID 0000.0001) %MON ke_vol                       =   2.8199008699639E+13
(PID.TID 0000.0001) %MON vort_r_min                   =  -3.7637061990678E-05
(PID.TID 0000.0001) %MON vort_r_max                   =   3.2699331518938E-05
(PID.TID 0000.0001) %MON vort_a_mean                  =   1.2397138973741E-04
(PID.TID 0000.0001) %MON vort_a_sd                    =   6.2966918177204E-06
(PID.TID 0000.0001) %MON vort_p_mean                  =   1.7325062561132E-04
(PID.TID 0000.0001) %MON vort_p_sd                    =   1.0960208317016E-04
(PID.TID 0000.0001) %MON surfExpan_theta_mean         =  -8.8423070934897E-07
(PID.TID 0000.0001) %MON surfExpan_salt_mean          =   1.1778787253428E-06
(PID.TID 0000.0001) // =======================================================
(PID.TID 0000.0001) // End MONITOR dynamic field statistics
(PID.TID 0000.0001) // =======================================================
(PID.TID 0000.0001) // =======================================================
(PID.TID 0000.0001) // Begin MONITOR SEAICE statistics
(PID.TID 0000.0001) // =======================================================
(PID.TID 0000.0001) %MON seaice_tsnumber              =                188388
(PID.TID 0000.0001) %MON seaice_time_sec              =   2.2606560000000E+08
(PID.TID 0000.0001) %MON seaice_area_max              =   1.0000000000000E+00
(PID.TID 0000.0001) %MON seaice_area_min              =   0.0000000000000E+00
(PID.TID 0000.0001) %MON seaice_area_mean             =   2.2109543562116E-01
(PID.TID 0000.0001) %MON seaice_area_sd               =   3.8242298125296E-01
(PID.TID 0000.0001) %MON seaice_area_del2             =   1.9094825851938E-02
(PID.TID 0000.0001) %MON seaice_heff_max              =   1.0115990757457E+00
(PID.TID 0000.0001) %MON seaice_heff_min              =   0.0000000000000E+00
(PID.TID 0000.0001) %MON seaice_heff_mean             =   1.2225081683127E-01
(PID.TID 0000.0001) %MON seaice_heff_sd               =   2.4108085305337E-01
(PID.TID 0000.0001) %MON seaice_heff_del2             =   1.0344509577557E-02
(PID.TID 0000.0001) %MON seaice_hsnow_max             =   2.7588954944145E-01
(PID.TID 0000.0001) %MON seaice_hsnow_min             =   0.0000000000000E+00
(PID.TID 0000.0001) %MON seaice_hsnow_mean            =   3.0059777994461E-02
(PID.TID 0000.0001) %MON seaice_hsnow_sd              =   6.3591379882494E-02
(PID.TID 0000.0001) %MON seaice_hsnow_del2            =   1.8613677342909E-03
(PID.TID 0000.0001) // =======================================================
(PID.TID 0000.0001) // End MONITOR SEAICE statistics
(PID.TID 0000.0001) // =======================================================
(PID.TID 0000.0001) // =======================================================
(PID.TID 0000.0001) // Begin MONITOR ptracer field statistics
(PID.TID 0000.0001) // =======================================================
(PID.TID 0000.0001) %MON trcstat_ptracer01_max        =   4.3206749483821E+00
(PID.TID 0000.0001) %MON trcstat_ptracer01_min        =   3.7997221289855E-02
(PID.TID 0000.0001) %MON trcstat_ptracer01_mean       =   5.8693236599492E-01
(PID.TID 0000.0001) %MON trcstat_ptracer01_sd         =   5.1393915394840E-01
(PID.TID 0000.0001) %MON trcstat_ptracer01_del2       =   1.3819912559184E-02
(PID.TID 0000.0001) %MON trcstat_ptracer02_max        =   4.4161324524731E+01
(PID.TID 0000.0001) %MON trcstat_ptracer02_min        =   1.4930485383354E-02
(PID.TID 0000.0001) %MON trcstat_ptracer02_mean       =   4.6206874187808E+00
(PID.TID 0000.0001) %MON trcstat_ptracer02_sd         =   6.6646423701849E+00
(PID.TID 0000.0001) %MON trcstat_ptracer02_del2       =   2.0264297508202E-01
(PID.TID 0000.0001) %MON trcstat_ptracer03_max        =   1.3876605029832E-03
(PID.TID 0000.0001) %MON trcstat_ptracer03_min        =   5.8864303059657E-04
(PID.TID 0000.0001) %MON trcstat_ptracer03_mean       =   1.0856846307760E-03
(PID.TID 0000.0001) %MON trcstat_ptracer03_sd         =   1.4469680601644E-04
(PID.TID 0000.0001) %MON trcstat_ptracer03_del2       =   9.1888824051509E-06
(PID.TID 0000.0001) %MON trcstat_ptracer04_max        =   1.5669854101844E+02
(PID.TID 0000.0001) %MON trcstat_ptracer04_min        =   6.2666926623515E-02
(PID.TID 0000.0001) %MON trcstat_ptracer04_mean       =   1.4507170551787E+01
(PID.TID 0000.0001) %MON trcstat_ptracer04_sd         =   1.6978282646111E+01
(PID.TID 0000.0001) %MON trcstat_ptracer04_del2       =   3.9820307606696E-01
(PID.TID 0000.0001) %MON trcstat_ptracer05_max        =   2.8323355230921E-01
(PID.TID 0000.0001) %MON trcstat_ptracer05_min        =   8.3402962384472E-08
(PID.TID 0000.0001) %MON trcstat_ptracer05_mean       =   5.9530720393562E-02
(PID.TID 0000.0001) %MON trcstat_ptracer05_sd         =   5.7205415507770E-02
(PID.TID 0000.0001) %MON trcstat_ptracer05_del2       =   2.5843127708275E-03
(PID.TID 0000.0001) %MON trcstat_ptracer06_max        =   4.5317368369474E+00
(PID.TID 0000.0001) %MON trcstat_ptracer06_min        =   1.3344473981516E-06
(PID.TID 0000.0001) %MON trcstat_ptracer06_mean       =   9.5249152629700E-01
(PID.TID 0000.0001) %MON trcstat_ptracer06_sd         =   9.1528664812433E-01
(PID.TID 0000.0001) %MON trcstat_ptracer06_del2       =   4.1349004333240E-02
(PID.TID 0000.0001) %MON trcstat_ptracer07_max        =   2.8323355230921E-04
(PID.TID 0000.0001) %MON trcstat_ptracer07_min        =   8.3402962384474E-11
(PID.TID 0000.0001) %MON trcstat_ptracer07_mean       =   5.9530720388352E-05
(PID.TID 0000.0001) %MON trcstat_ptracer07_sd         =   5.7205415569925E-05
(PID.TID 0000.0001) %MON trcstat_ptracer07_del2       =   2.5843127868731E-06
(PID.TID 0000.0001) %MON trcstat_ptracer08_max        =   7.1882698518323E-03
(PID.TID 0000.0001) %MON trcstat_ptracer08_min        =   6.8449298887247E-33
(PID.TID 0000.0001) %MON trcstat_ptracer08_mean       =   5.1877657827483E-04
(PID.TID 0000.0001) %MON trcstat_ptracer08_sd         =   1.1961002900925E-03
(PID.TID 0000.0001) %MON trcstat_ptracer08_del2       =   3.3608859902600E-05
(PID.TID 0000.0001) %MON trcstat_ptracer09_max        =   1.1501231762932E-01
(PID.TID 0000.0001) %MON trcstat_ptracer09_min        =   1.0951887821960E-31
(PID.TID 0000.0001) %MON trcstat_ptracer09_mean       =   8.3004252523973E-03
(PID.TID 0000.0001) %MON trcstat_ptracer09_sd         =   1.9137604641480E-02
(PID.TID 0000.0001) %MON trcstat_ptracer09_del2       =   5.3774175844160E-04
(PID.TID 0000.0001) %MON trcstat_ptracer10_max        =   7.1882699550494E-06
(PID.TID 0000.0001) %MON trcstat_ptracer10_min        =   6.8449298887533E-36
(PID.TID 0000.0001) %MON trcstat_ptracer10_mean       =   5.1877657932324E-07
(PID.TID 0000.0001) %MON trcstat_ptracer10_sd         =   1.1961002924661E-06
(PID.TID 0000.0001) %MON trcstat_ptracer10_del2       =   3.3608859996189E-08
(PID.TID 0000.0001) %MON trcstat_ptracer11_max        =   8.8836834858117E-03
(PID.TID 0000.0001) %MON trcstat_ptracer11_min        =   1.9252047993454E-32
(PID.TID 0000.0001) %MON trcstat_ptracer11_mean       =   3.6938159876724E-04
(PID.TID 0000.0001) %MON trcstat_ptracer11_sd         =   1.3662181348741E-03
(PID.TID 0000.0001) %MON trcstat_ptracer11_del2       =   3.8000090790594E-05
(PID.TID 0000.0001) %MON trcstat_ptracer12_max        =   8.4383554910404E-02
(PID.TID 0000.0001) %MON trcstat_ptracer12_min        =   8.6607919684034E-23
(PID.TID 0000.0001) %MON trcstat_ptracer12_mean       =   1.7678524798642E-03
(PID.TID 0000.0001) %MON trcstat_ptracer12_sd         =   7.4726098096637E-03
(PID.TID 0000.0001) %MON trcstat_ptracer12_del2       =   1.9284165389526E-04
(PID.TID 0000.0001) %MON trcstat_ptracer13_max        =   1.3501368785665E+00
(PID.TID 0000.0001) %MON trcstat_ptracer13_min        =   1.3857267149445E-21
(PID.TID 0000.0001) %MON trcstat_ptracer13_mean       =   2.8285639677827E-02
(PID.TID 0000.0001) %MON trcstat_ptracer13_sd         =   1.1956175695462E-01
(PID.TID 0000.0001) %MON trcstat_ptracer13_del2       =   3.0854664623242E-03
(PID.TID 0000.0001) %MON trcstat_ptracer14_max        =   8.4383554962399E-05
(PID.TID 0000.0001) %MON trcstat_ptracer14_min        =   8.6607919684020E-26
(PID.TID 0000.0001) %MON trcstat_ptracer14_mean       =   1.7678524811962E-06
(PID.TID 0000.0001) %MON trcstat_ptracer14_sd         =   7.4726098131960E-06
(PID.TID 0000.0001) %MON trcstat_ptracer14_del2       =   1.9284165395390E-07
(PID.TID 0000.0001) %MON trcstat_ptracer15_max        =   9.5267285338550E-01
(PID.TID 0000.0001) %MON trcstat_ptracer15_min        =   9.4158071617928E-22
(PID.TID 0000.0001) %MON trcstat_ptracer15_mean       =   1.8829743255285E-02
(PID.TID 0000.0001) %MON trcstat_ptracer15_sd         =   9.2014285959530E-02
(PID.TID 0000.0001) %MON trcstat_ptracer15_del2       =   2.6763139462464E-03
(PID.TID 0000.0001) %MON trcstat_ptracer16_max        =   1.0120978226739E+00
(PID.TID 0000.0001) %MON trcstat_ptracer16_min        =   3.3728982922276E-09
(PID.TID 0000.0001) %MON trcstat_ptracer16_mean       =   2.0803125250310E-02
(PID.TID 0000.0001) %MON trcstat_ptracer16_sd         =   4.8904437821906E-02
(PID.TID 0000.0001) %MON trcstat_ptracer16_del2       =   3.5036024421903E-03
(PID.TID 0000.0001) %MON trcstat_ptracer17_max        =   1.6193565162783E+01
(PID.TID 0000.0001) %MON trcstat_ptracer17_min        =   5.3966372675641E-08
(PID.TID 0000.0001) %MON trcstat_ptracer17_mean       =   3.3285000400496E-01
(PID.TID 0000.0001) %MON trcstat_ptracer17_sd         =   7.8247100515050E-01
(PID.TID 0000.0001) %MON trcstat_ptracer17_del2       =   5.6057639075045E-02
(PID.TID 0000.0001) %MON trcstat_ptracer18_max        =   1.0120978226739E-03
(PID.TID 0000.0001) %MON trcstat_ptracer18_min        =   3.3728982922276E-12
(PID.TID 0000.0001) %MON trcstat_ptracer18_mean       =   2.0803125254444E-05
(PID.TID 0000.0001) %MON trcstat_ptracer18_sd         =   4.8904437816422E-05
(PID.TID 0000.0001) %MON trcstat_ptracer18_del2       =   3.5036024430180E-06
(PID.TID 0000.0001) %MON trcstat_ptracer19_max        =   3.0580937614224E+02
(PID.TID 0000.0001) %MON trcstat_ptracer19_min        =   9.2263135852666E-08
(PID.TID 0000.0001) %MON trcstat_ptracer19_mean       =   2.2604574923319E+00
(PID.TID 0000.0001) %MON trcstat_ptracer19_sd         =   1.2400232724512E+01
(PID.TID 0000.0001) %MON trcstat_ptracer19_del2       =   3.9065605543067E-01
(PID.TID 0000.0001) %MON trcstat_ptracer20_max        =   1.9612686010335E+00
(PID.TID 0000.0001) %MON trcstat_ptracer20_min        =   2.2474205615250E-07
(PID.TID 0000.0001) %MON trcstat_ptracer20_mean       =   1.7088231876455E-02
(PID.TID 0000.0001) %MON trcstat_ptracer20_sd         =   8.2050281145836E-02
(PID.TID 0000.0001) %MON trcstat_ptracer20_del2       =   2.8928261495588E-03
(PID.TID 0000.0001) %MON trcstat_ptracer21_max        =   2.3343713360813E+00
(PID.TID 0000.0001) %MON trcstat_ptracer21_min        =   3.0233044741169E-05
(PID.TID 0000.0001) %MON trcstat_ptracer21_mean       =   1.6310046363514E-01
(PID.TID 0000.0001) %MON trcstat_ptracer21_sd         =   1.9128914752468E-01
(PID.TID 0000.0001) %MON trcstat_ptracer21_del2       =   1.0655058008890E-02
(PID.TID 0000.0001) %MON trcstat_ptracer22_max        =   1.5330810594226E-04
(PID.TID 0000.0001) %MON trcstat_ptracer22_min        =  -2.1068568895987E-19
(PID.TID 0000.0001) %MON trcstat_ptracer22_mean       =   4.0941749386348E-07
(PID.TID 0000.0001) %MON trcstat_ptracer22_sd         =   6.4054870586629E-06
(PID.TID 0000.0001) %MON trcstat_ptracer22_del2       =   1.2798873831287E-07
(PID.TID 0000.0001) %MON trcstat_ptracer23_max        =   5.2843830960099E-04
(PID.TID 0000.0001) %MON trcstat_ptracer23_min        =  -2.2601834304610E-24
(PID.TID 0000.0001) %MON trcstat_ptracer23_mean       =   8.3290985054897E-06
(PID.TID 0000.0001) %MON trcstat_ptracer23_sd         =   4.1799199648500E-05
(PID.TID 0000.0001) %MON trcstat_ptracer23_del2       =   9.8696632223558E-07
(PID.TID 0000.0001) %MON trcstat_ptracer24_max        =   1.5330810594225E-04
(PID.TID 0000.0001) %MON trcstat_ptracer24_min        =   5.7064853757695E-51
(PID.TID 0000.0001) %MON trcstat_ptracer24_mean       =   4.0955048571403E-07
(PID.TID 0000.0001) %MON trcstat_ptracer24_sd         =   6.4054785627049E-06
(PID.TID 0000.0001) %MON trcstat_ptracer24_del2       =   1.2799981249889E-07
(PID.TID 0000.0001) %MON trcstat_ptracer25_max        =   1.5382050936562E-04
(PID.TID 0000.0001) %MON trcstat_ptracer25_min        =   8.0626613654933E-34
(PID.TID 0000.0001) %MON trcstat_ptracer25_mean       =   3.2115607539270E-06
(PID.TID 0000.0001) %MON trcstat_ptracer25_sd         =   1.3112339001858E-05
(PID.TID 0000.0001) %MON trcstat_ptracer25_del2       =   7.3818520959250E-07
(PID.TID 0000.0001) %MON trcstat_ptracer26_max        =   1.5352862098739E-04
(PID.TID 0000.0001) %MON trcstat_ptracer26_min        =  -2.6882116635655E-17
(PID.TID 0000.0001) %MON trcstat_ptracer26_mean       =   3.9071762069400E-07
(PID.TID 0000.0001) %MON trcstat_ptracer26_sd         =   6.3680934540377E-06
(PID.TID 0000.0001) %MON trcstat_ptracer26_del2       =   1.2852519252587E-07
(PID.TID 0000.0001) %MON trcstat_ptracer27_max        =   9.7127422252595E-03
(PID.TID 0000.0001) %MON trcstat_ptracer27_min        =   1.2909476433221E-19
(PID.TID 0000.0001) %MON trcstat_ptracer27_mean       =   2.5678049081567E-04
(PID.TID 0000.0001) %MON trcstat_ptracer27_sd         =   6.8330010321232E-04
(PID.TID 0000.0001) %MON trcstat_ptracer27_del2       =   4.2875860436451E-05
(PID.TID 0000.0001) %MON trcstat_ptracer28_max        =   9.2614081803030E-02
(PID.TID 0000.0001) %MON trcstat_ptracer28_min        =   6.7039063162443E-24
(PID.TID 0000.0001) %MON trcstat_ptracer28_mean       =   1.7150301458179E-03
(PID.TID 0000.0001) %MON trcstat_ptracer28_sd         =   5.9564888395880E-03
(PID.TID 0000.0001) %MON trcstat_ptracer28_del2       =   3.0903320078643E-04
(PID.TID 0000.0001) %MON trcstat_ptracer29_max        =   1.0589134326474E-03
(PID.TID 0000.0001) %MON trcstat_ptracer29_min        =   9.9999999999874E-51
(PID.TID 0000.0001) %MON trcstat_ptracer29_mean       =   3.3536069431906E-06
(PID.TID 0000.0001) %MON trcstat_ptracer29_sd         =   2.4858450638947E-05
(PID.TID 0000.0001) %MON trcstat_ptracer29_del2       =   4.7229981807071E-07
(PID.TID 0000.0001) %MON trcstat_ptracer30_max        =   1.4269382221414E-02
(PID.TID 0000.0001) %MON trcstat_ptracer30_min        =   1.2203773482465E-29
(PID.TID 0000.0001) %MON trcstat_ptracer30_mean       =   1.8357627592117E-04
(PID.TID 0000.0001) %MON trcstat_ptracer30_sd         =   9.4313470129179E-04
(PID.TID 0000.0001) %MON trcstat_ptracer30_del2       =   3.5066467710958E-05
(PID.TID 0000.0001) %MON trcstat_ptracer31_max        =   1.5356564182849E-04
(PID.TID 0000.0001) %MON trcstat_ptracer31_min        =   1.2604356144618E-14
(PID.TID 0000.0001) %MON trcstat_ptracer31_mean       =   4.0327667335883E-07
(PID.TID 0000.0001) %MON trcstat_ptracer31_sd         =   6.4015916359091E-06
(PID.TID 0000.0001) %MON trcstat_ptracer31_del2       =   1.2827933027471E-07
(PID.TID 0000.0001) %MON trcstat_ptracer32_max        =   1.5356564182843E-04
(PID.TID 0000.0001) %MON trcstat_ptracer32_min        =  -5.4490588694353E-19
(PID.TID 0000.0001) %MON trcstat_ptracer32_mean       =   4.0195291612259E-07
(PID.TID 0000.0001) %MON trcstat_ptracer32_sd         =   6.4016704491441E-06
(PID.TID 0000.0001) %MON trcstat_ptracer32_del2       =   1.2816307466633E-07
(PID.TID 0000.0001) %MON trcstat_ptracer33_max        =   1.5352862098742E-04
(PID.TID 0000.0001) %MON trcstat_ptracer33_min        =  -2.0622544588523E-21
(PID.TID 0000.0001) %MON trcstat_ptracer33_mean       =   3.9071762090041E-07
(PID.TID 0000.0001) %MON trcstat_ptracer33_sd         =   6.3680934540347E-06
(PID.TID 0000.0001) %MON trcstat_ptracer33_del2       =   1.2852519253686E-07
(PID.TID 0000.0001) %MON trcstat_ptracer34_max        =   1.5330810594226E-04
(PID.TID 0000.0001) %MON trcstat_ptracer34_min        =   5.6873593344934E-51
(PID.TID 0000.0001) %MON trcstat_ptracer34_mean       =   4.0941843805948E-07
(PID.TID 0000.0001) %MON trcstat_ptracer34_sd         =   6.4054869978119E-06
(PID.TID 0000.0001) %MON trcstat_ptracer34_del2       =   1.2798877261772E-07
(PID.TID 0000.0001) %MON trcstat_ptracer35_max        =   1.5352862098741E-04
(PID.TID 0000.0001) %MON trcstat_ptracer35_min        =  -2.5997025267099E-17
(PID.TID 0000.0001) %MON trcstat_ptracer35_mean       =   3.9071762069703E-07
(PID.TID 0000.0001) %MON trcstat_ptracer35_sd         =   6.3680934540442E-06
(PID.TID 0000.0001) %MON trcstat_ptracer35_del2       =   1.2852519252606E-07
(PID.TID 0000.0001) %MON trcstat_ptracer36_max        =   1.5330810594227E-04
(PID.TID 0000.0001) %MON trcstat_ptracer36_min        =  -5.8860784472533E-19
(PID.TID 0000.0001) %MON trcstat_ptracer36_mean       =   4.0941701511101E-07
(PID.TID 0000.0001) %MON trcstat_ptracer36_sd         =   6.4054870894199E-06
(PID.TID 0000.0001) %MON trcstat_ptracer36_del2       =   1.2798871924696E-07
(PID.TID 0000.0001) %MON trcstat_ptracer37_max        =   1.5330810594227E-04
(PID.TID 0000.0001) %MON trcstat_ptracer37_min        =  -3.8819847781105E-36
(PID.TID 0000.0001) %MON trcstat_ptracer37_mean       =   4.1226249551621E-07
(PID.TID 0000.0001) %MON trcstat_ptracer37_sd         =   6.4053083108282E-06
(PID.TID 0000.0001) %MON trcstat_ptracer37_del2       =   1.2819152414140E-07
(PID.TID 0000.0001) %MON trcstat_ptracer38_max        =   1.5385271384954E-04
(PID.TID 0000.0001) %MON trcstat_ptracer38_min        =   9.8830981135001E-51
(PID.TID 0000.0001) %MON trcstat_ptracer38_mean       =   4.6380771495020E-07
(PID.TID 0000.0001) %MON trcstat_ptracer38_sd         =   6.5813203956596E-06
(PID.TID 0000.0001) %MON trcstat_ptracer38_del2       =   1.3022557953599E-07
(PID.TID 0000.0001) %MON trcstat_ptracer39_max        =   2.8406180922051E-03
(PID.TID 0000.0001) %MON trcstat_ptracer39_min        =   7.4217720087748E-33
(PID.TID 0000.0001) %MON trcstat_ptracer39_mean       =   1.9691448227045E-05
(PID.TID 0000.0001) %MON trcstat_ptracer39_sd         =   1.3565640073764E-04
(PID.TID 0000.0001) %MON trcstat_ptracer39_del2       =   3.5323545842572E-06
(PID.TID 0000.0001) %MON trcstat_ptracer40_max        =   1.5330810594227E-04
(PID.TID 0000.0001) %MON trcstat_ptracer40_min        =  -7.0886205306079E-19
(PID.TID 0000.0001) %MON trcstat_ptracer40_mean       =   4.0941701341139E-07
(PID.TID 0000.0001) %MON trcstat_ptracer40_sd         =   6.4054870895305E-06
(PID.TID 0000.0001) %MON trcstat_ptracer40_del2       =   1.2798871921598E-07
(PID.TID 0000.0001) %MON trcstat_ptracer41_max        =   1.5330810594225E-04
(PID.TID 0000.0001) %MON trcstat_ptracer41_min        =  -4.8650340804781E-18
(PID.TID 0000.0001) %MON trcstat_ptracer41_mean       =   4.0941701252256E-07
(PID.TID 0000.0001) %MON trcstat_ptracer41_sd         =   6.4054870896153E-06
(PID.TID 0000.0001) %MON trcstat_ptracer41_del2       =   1.2798871919947E-07
(PID.TID 0000.0001) %MON trcstat_ptracer42_max        =   1.5352862098748E-04
(PID.TID 0000.0001) %MON trcstat_ptracer42_min        =   7.4528256786182E-17
(PID.TID 0000.0001) %MON trcstat_ptracer42_mean       =   3.9170216652800E-07
(PID.TID 0000.0001) %MON trcstat_ptracer42_sd         =   6.3680375267777E-06
(PID.TID 0000.0001) %MON trcstat_ptracer42_del2       =   1.2861964898900E-07
(PID.TID 0000.0001) %MON trcstat_ptracer43_max        =   1.0602532287276E-03
(PID.TID 0000.0001) %MON trcstat_ptracer43_min        =   5.4384486400568E-14
(PID.TID 0000.0001) %MON trcstat_ptracer43_mean       =   2.5215896554080E-05
(PID.TID 0000.0001) %MON trcstat_ptracer43_sd         =   8.8217934461733E-05
(PID.TID 0000.0001) %MON trcstat_ptracer43_del2       =   4.6522539889677E-06
(PID.TID 0000.0001) %MON trcstat_ptracer44_max        =   1.5330810594227E-04
(PID.TID 0000.0001) %MON trcstat_ptracer44_min        =  -1.3558520158725E-31
(PID.TID 0000.0001) %MON trcstat_ptracer44_mean       =   4.0943624608916E-07
(PID.TID 0000.0001) %MON trcstat_ptracer44_sd         =   6.4054858618932E-06
(PID.TID 0000.0001) %MON trcstat_ptracer44_del2       =   1.2798984943381E-07
(PID.TID 0000.0001) %MON trcstat_ptracer45_max        =   1.5444828325797E-04
(PID.TID 0000.0001) %MON trcstat_ptracer45_min        =   1.4103338108970E-50
(PID.TID 0000.0001) %MON trcstat_ptracer45_mean       =   6.6337635897957E-07
(PID.TID 0000.0001) %MON trcstat_ptracer45_sd         =   7.3505266997894E-06
(PID.TID 0000.0001) %MON trcstat_ptracer45_del2       =   1.5213620187277E-07
(PID.TID 0000.0001) %MON trcstat_ptracer46_max        =   1.5356564182844E-04
(PID.TID 0000.0001) %MON trcstat_ptracer46_min        =  -6.1882451432111E-21
(PID.TID 0000.0001) %MON trcstat_ptracer46_mean       =   4.0195291634208E-07
(PID.TID 0000.0001) %MON trcstat_ptracer46_sd         =   6.4016704491348E-06
(PID.TID 0000.0001) %MON trcstat_ptracer46_del2       =   1.2816307465749E-07
(PID.TID 0000.0001) %MON trcstat_ptracer47_max        =   1.5330810594226E-04
(PID.TID 0000.0001) %MON trcstat_ptracer47_min        =  -5.1799838144690E-19
(PID.TID 0000.0001) %MON trcstat_ptracer47_mean       =   4.0941703036968E-07
(PID.TID 0000.0001) %MON trcstat_ptracer47_sd         =   6.4054870884379E-06
(PID.TID 0000.0001) %MON trcstat_ptracer47_del2       =   1.2798871954061E-07
(PID.TID 0000.0001) %MON trcstat_ptracer48_max        =   1.5330810594227E-04
(PID.TID 0000.0001) %MON trcstat_ptracer48_min        =  -7.7575685454316E-35
(PID.TID 0000.0001) %MON trcstat_ptracer48_mean       =   4.0941748186245E-07
(PID.TID 0000.0001) %MON trcstat_ptracer48_sd         =   6.4054870594327E-06
(PID.TID 0000.0001) %MON trcstat_ptracer48_del2       =   1.2798873384727E-07
(PID.TID 0000.0001) %MON trcstat_ptracer49_max        =   1.5330810594225E-04
(PID.TID 0000.0001) %MON trcstat_ptracer49_min        =   7.8265283313859E-51
(PID.TID 0000.0001) %MON trcstat_ptracer49_mean       =   4.2452216533832E-07
(PID.TID 0000.0001) %MON trcstat_ptracer49_sd         =   6.4047825438703E-06
(PID.TID 0000.0001) %MON trcstat_ptracer49_del2       =   1.3093540788074E-07
(PID.TID 0000.0001) %MON trcstat_ptracer50_max        =   1.5380209245600E-04
(PID.TID 0000.0001) %MON trcstat_ptracer50_min        =   9.6062184489296E-51
(PID.TID 0000.0001) %MON trcstat_ptracer50_mean       =   4.6531033890853E-07
(PID.TID 0000.0001) %MON trcstat_ptracer50_sd         =   6.6437924188946E-06
(PID.TID 0000.0001) %MON trcstat_ptracer50_del2       =   1.2405584602558E-07
(PID.TID 0000.0001) %MON trcstat_ptracer51_max        =   1.5330810594228E-04
(PID.TID 0000.0001) %MON trcstat_ptracer51_min        =   1.0000000768515E-50
(PID.TID 0000.0001) %MON trcstat_ptracer51_mean       =   4.2453270649318E-07
(PID.TID 0000.0001) %MON trcstat_ptracer51_sd         =   6.4046071174157E-06
(PID.TID 0000.0001) %MON trcstat_ptracer51_del2       =   1.2914926468675E-07
(PID.TID 0000.0001) %MON trcstat_ptracer52_max        =   1.5403549880569E-04
(PID.TID 0000.0001) %MON trcstat_ptracer52_min        =   4.4982833324970E-50
(PID.TID 0000.0001) %MON trcstat_ptracer52_mean       =   4.3915401248640E-07
(PID.TID 0000.0001) %MON trcstat_ptracer52_sd         =   6.5671165821628E-06
(PID.TID 0000.0001) %MON trcstat_ptracer52_del2       =   1.2644414560454E-07
(PID.TID 0000.0001) %MON trcstat_ptracer53_max        =   1.5352862098749E-04
(PID.TID 0000.0001) %MON trcstat_ptracer53_min        =  -2.5766996840906E-17
(PID.TID 0000.0001) %MON trcstat_ptracer53_mean       =   3.9071762070535E-07
(PID.TID 0000.0001) %MON trcstat_ptracer53_sd         =   6.3680934540678E-06
(PID.TID 0000.0001) %MON trcstat_ptracer53_del2       =   1.2852519252624E-07
(PID.TID 0000.0001) %MON trcstat_ptracer54_max        =   1.5330810594227E-04
(PID.TID 0000.0001) %MON trcstat_ptracer54_min        =  -4.2532941173473E-18
(PID.TID 0000.0001) %MON trcstat_ptracer54_mean       =   4.0941701252141E-07
(PID.TID 0000.0001) %MON trcstat_ptracer54_sd         =   6.4054870896136E-06
(PID.TID 0000.0001) %MON trcstat_ptracer54_del2       =   1.2798871919943E-07
(PID.TID 0000.0001) %MON trcstat_ptracer55_max        =   1.5352862098748E-04
(PID.TID 0000.0001) %MON trcstat_ptracer55_min        =  -2.1335931332555E-23
(PID.TID 0000.0001) %MON trcstat_ptracer55_mean       =   3.9071762106082E-07
(PID.TID 0000.0001) %MON trcstat_ptracer55_sd         =   6.3680934540449E-06
(PID.TID 0000.0001) %MON trcstat_ptracer55_del2       =   1.2852519253263E-07
(PID.TID 0000.0001) %MON trcstat_ptracer56_max        =   2.9313365916178E-02
(PID.TID 0000.0001) %MON trcstat_ptracer56_min        =   4.4549432623710E-41
(PID.TID 0000.0001) %MON trcstat_ptracer56_mean       =   3.4387321612162E-04
(PID.TID 0000.0001) %MON trcstat_ptracer56_sd         =   1.8386722879667E-03
(PID.TID 0000.0001) %MON trcstat_ptracer56_del2       =   4.6623947557690E-05
(PID.TID 0000.0001) %MON trcstat_ptracer57_max        =   5.3517556668241E-04
(PID.TID 0000.0001) %MON trcstat_ptracer57_min        =   1.6274198236569E-44
(PID.TID 0000.0001) %MON trcstat_ptracer57_mean       =   1.2446549306647E-06
(PID.TID 0000.0001) %MON trcstat_ptracer57_sd         =   1.1364409786976E-05
(PID.TID 0000.0001) %MON trcstat_ptracer57_del2       =   2.6002190875949E-07
(PID.TID 0000.0001) %MON trcstat_ptracer58_max        =   1.5423623604900E-04
(PID.TID 0000.0001) %MON trcstat_ptracer58_min        =   9.9206176004314E-34
(PID.TID 0000.0001) %MON trcstat_ptracer58_mean       =   5.5772740417932E-07
(PID.TID 0000.0001) %MON trcstat_ptracer58_sd         =   7.3643551511648E-06
(PID.TID 0000.0001) %MON trcstat_ptracer58_del2       =   1.3743619853444E-07
(PID.TID 0000.0001) %MON trcstat_ptracer59_max        =   1.5424460085408E-04
(PID.TID 0000.0001) %MON trcstat_ptracer59_min        =   9.7961551570302E-51
(PID.TID 0000.0001) %MON trcstat_ptracer59_mean       =   4.9740210074353E-07
(PID.TID 0000.0001) %MON trcstat_ptracer59_sd         =   6.7264966943526E-06
(PID.TID 0000.0001) %MON trcstat_ptracer59_del2       =   1.2985843883844E-07
(PID.TID 0000.0001) %MON trcstat_ptracer60_max        =   1.5429847095136E-04
(PID.TID 0000.0001) %MON trcstat_ptracer60_min        =  -6.1992234955829E-32
(PID.TID 0000.0001) %MON trcstat_ptracer60_mean       =   5.1889896771074E-07
(PID.TID 0000.0001) %MON trcstat_ptracer60_sd         =   7.0361022114803E-06
(PID.TID 0000.0001) %MON trcstat_ptracer60_del2       =   1.3016710515553E-07
(PID.TID 0000.0001) %MON trcstat_ptracer61_max        =   1.5393579049650E-04
(PID.TID 0000.0001) %MON trcstat_ptracer61_min        =   6.6447420237134E-30
(PID.TID 0000.0001) %MON trcstat_ptracer61_mean       =   4.6060433466215E-07
(PID.TID 0000.0001) %MON trcstat_ptracer61_sd         =   6.7681680670125E-06
(PID.TID 0000.0001) %MON trcstat_ptracer61_del2       =   1.2506700039084E-07
(PID.TID 0000.0001) %MON trcstat_ptracer62_max        =   1.5371504647217E-04
(PID.TID 0000.0001) %MON trcstat_ptracer62_min        =   9.9280675073996E-51
(PID.TID 0000.0001) %MON trcstat_ptracer62_mean       =   4.5658312057924E-07
(PID.TID 0000.0001) %MON trcstat_ptracer62_sd         =   6.5478085443855E-06
(PID.TID 0000.0001) %MON trcstat_ptracer62_del2       =   1.3026270081664E-07
(PID.TID 0000.0001) %MON trcstat_ptracer63_max        =   1.5422008727468E-04
(PID.TID 0000.0001) %MON trcstat_ptracer63_min        =   9.5792358700654E-51
(PID.TID 0000.0001) %MON trcstat_ptracer63_mean       =   5.6265684313543E-07
(PID.TID 0000.0001) %MON trcstat_ptracer63_sd         =   7.0175738161129E-06
(PID.TID 0000.0001) %MON trcstat_ptracer63_del2       =   1.2662624808435E-07
(PID.TID 0000.0001) %MON trcstat_ptracer64_max        =   4.6779210219170E-04
(PID.TID 0000.0001) %MON trcstat_ptracer64_min        =  -1.7896198135753E-24
(PID.TID 0000.0001) %MON trcstat_ptracer64_mean       =   2.7410891458099E-06
(PID.TID 0000.0001) %MON trcstat_ptracer64_sd         =   2.2084938309101E-05
(PID.TID 0000.0001) %MON trcstat_ptracer64_del2       =   6.5019544326190E-07
(PID.TID 0000.0001) %MON trcstat_ptracer65_max        =   1.5356564182843E-04
(PID.TID 0000.0001) %MON trcstat_ptracer65_min        =   4.1223338478500E-18
(PID.TID 0000.0001) %MON trcstat_ptracer65_mean       =   4.0196016678598E-07
(PID.TID 0000.0001) %MON trcstat_ptracer65_sd         =   6.4016700891805E-06
(PID.TID 0000.0001) %MON trcstat_ptracer65_del2       =   1.2816410052546E-07
(PID.TID 0000.0001) %MON trcstat_ptracer66_max        =   1.5330810594225E-04
(PID.TID 0000.0001) %MON trcstat_ptracer66_min        =  -5.1234188284283E-19
(PID.TID 0000.0001) %MON trcstat_ptracer66_mean       =   4.0941703841558E-07
(PID.TID 0000.0001) %MON trcstat_ptracer66_sd         =   6.4054870879169E-06
(PID.TID 0000.0001) %MON trcstat_ptracer66_del2       =   1.2798871971247E-07
(PID.TID 0000.0001) %MON trcstat_ptracer67_max        =   1.5352862098748E-04
(PID.TID 0000.0001) %MON trcstat_ptracer67_min        =  -2.6411543483936E-17
(PID.TID 0000.0001) %MON trcstat_ptracer67_mean       =   3.9071762070267E-07
(PID.TID 0000.0001) %MON trcstat_ptracer67_sd         =   6.3680934540644E-06
(PID.TID 0000.0001) %MON trcstat_ptracer67_del2       =   1.2852519252609E-07
(PID.TID 0000.0001) %MON trcstat_ptracer68_max        =   1.5352862098745E-04
(PID.TID 0000.0001) %MON trcstat_ptracer68_min        =  -6.3919609149577E-25
(PID.TID 0000.0001) %MON trcstat_ptracer68_mean       =   3.9071762269536E-07
(PID.TID 0000.0001) %MON trcstat_ptracer68_sd         =   6.3680934539366E-06
(PID.TID 0000.0001) %MON trcstat_ptracer68_del2       =   1.2852519249790E-07
(PID.TID 0000.0001) %MON trcstat_ptracer69_max        =   1.5330810594228E-04
(PID.TID 0000.0001) %MON trcstat_ptracer69_min        =  -5.8636483185960E-19
(PID.TID 0000.0001) %MON trcstat_ptracer69_mean       =   4.0941701739606E-07
(PID.TID 0000.0001) %MON trcstat_ptracer69_sd         =   6.4054870892549E-06
(PID.TID 0000.0001) %MON trcstat_ptracer69_del2       =   1.2798871928181E-07
(PID.TID 0000.0001) %MON trcstat_ptracer70_max        =   1.5330810594226E-04
(PID.TID 0000.0001) %MON trcstat_ptracer70_min        =  -2.6725416286017E-18
(PID.TID 0000.0001) %MON trcstat_ptracer70_mean       =   4.0941701253828E-07
(PID.TID 0000.0001) %MON trcstat_ptracer70_sd         =   6.4054870896140E-06
(PID.TID 0000.0001) %MON trcstat_ptracer70_del2       =   1.2798871920008E-07
(PID.TID 0000.0001) %MON trcstat_ptracer71_max        =   1.5426051424107E-04
(PID.TID 0000.0001) %MON trcstat_ptracer71_min        =   7.8169320696377E-31
(PID.TID 0000.0001) %MON trcstat_ptracer71_mean       =   6.0153808072333E-07
(PID.TID 0000.0001) %MON trcstat_ptracer71_sd         =   7.5198465530871E-06
(PID.TID 0000.0001) %MON trcstat_ptracer71_del2       =   1.4437545620712E-07
(PID.TID 0000.0001) %MON trcstat_ptracer72_max        =   1.5330810594227E-04
(PID.TID 0000.0001) %MON trcstat_ptracer72_min        =   9.9844356148597E-51
(PID.TID 0000.0001) %MON trcstat_ptracer72_mean       =   4.0941841588960E-07
(PID.TID 0000.0001) %MON trcstat_ptracer72_sd         =   6.4054869996099E-06
(PID.TID 0000.0001) %MON trcstat_ptracer72_del2       =   1.2798876662105E-07
(PID.TID 0000.0001) %MON trcstat_ptracer73_max        =   1.9021361126894E-02
(PID.TID 0000.0001) %MON trcstat_ptracer73_min        =  -3.8576318333180E-19
(PID.TID 0000.0001) %MON trcstat_ptracer73_mean       =   6.9614741968748E-04
(PID.TID 0000.0001) %MON trcstat_ptracer73_sd         =   1.8032873587789E-03
(PID.TID 0000.0001) %MON trcstat_ptracer73_del2       =   9.8863175564638E-05
(PID.TID 0000.0001) %MON trcstat_ptracer74_max        =   1.5356564182849E-04
(PID.TID 0000.0001) %MON trcstat_ptracer74_min        =  -1.3361676678101E-18
(PID.TID 0000.0001) %MON trcstat_ptracer74_mean       =   4.0195291612837E-07
(PID.TID 0000.0001) %MON trcstat_ptracer74_sd         =   6.4016704491624E-06
(PID.TID 0000.0001) %MON trcstat_ptracer74_del2       =   1.2816307466657E-07
(PID.TID 0000.0001) %MON trcstat_ptracer75_max        =   1.5359195655827E-04
(PID.TID 0000.0001) %MON trcstat_ptracer75_min        =   4.9755948754102E-37
(PID.TID 0000.0001) %MON trcstat_ptracer75_mean       =   4.2995364349061E-07
(PID.TID 0000.0001) %MON trcstat_ptracer75_sd         =   6.4341471013093E-06
(PID.TID 0000.0001) %MON trcstat_ptracer75_del2       =   1.3121844305417E-07
(PID.TID 0000.0001) %MON trcstat_ptracer76_max        =   1.5352862098747E-04
(PID.TID 0000.0001) %MON trcstat_ptracer76_min        =  -2.4504058678242E-19
(PID.TID 0000.0001) %MON trcstat_ptracer76_mean       =   3.9071762072743E-07
(PID.TID 0000.0001) %MON trcstat_ptracer76_sd         =   6.3680934540614E-06
(PID.TID 0000.0001) %MON trcstat_ptracer76_del2       =   1.2852519252831E-07
(PID.TID 0000.0001) %MON trcstat_ptracer77_max        =   1.5352862098748E-04
(PID.TID 0000.0001) %MON trcstat_ptracer77_min        =   6.7707373415795E-29
(PID.TID 0000.0001) %MON trcstat_ptracer77_mean       =   3.9071783189692E-07
(PID.TID 0000.0001) %MON trcstat_ptracer77_sd         =   6.3680934430337E-06
(PID.TID 0000.0001) %MON trcstat_ptracer77_del2       =   1.2852520018483E-07
(PID.TID 0000.0001) %MON trcstat_ptracer78_max        =   1.5352862098746E-04
(PID.TID 0000.0001) %MON trcstat_ptracer78_min        =  -1.3680096799808E-17
(PID.TID 0000.0001) %MON trcstat_ptracer78_mean       =   3.9071762070133E-07
(PID.TID 0000.0001) %MON trcstat_ptracer78_sd         =   6.3680934540595E-06
(PID.TID 0000.0001) %MON trcstat_ptracer78_del2       =   1.2852519252611E-07
(PID.TID 0000.0001) %MON trcstat_ptracer79_max        =   9.6361439117310E-02
(PID.TID 0000.0001) %MON trcstat_ptracer79_min        =   3.2629111351419E-15
(PID.TID 0000.0001) %MON trcstat_ptracer79_mean       =   6.7363212375382E-03
(PID.TID 0000.0001) %MON trcstat_ptracer79_sd         =   1.0335708842568E-02
(PID.TID 0000.0001) %MON trcstat_ptracer79_del2       =   8.6186788559352E-04
(PID.TID 0000.0001) %MON trcstat_ptracer80_max        =   1.5330810594227E-04
(PID.TID 0000.0001) %MON trcstat_ptracer80_min        =  -1.4834628131303E-23
(PID.TID 0000.0001) %MON trcstat_ptracer80_mean       =   4.0941721366317E-07
(PID.TID 0000.0001) %MON trcstat_ptracer80_sd         =   6.4054870766528E-06
(PID.TID 0000.0001) %MON trcstat_ptracer80_del2       =   1.2798872519110E-07
(PID.TID 0000.0001) %MON trcstat_ptracer81_max        =   1.5360468019890E-04
(PID.TID 0000.0001) %MON trcstat_ptracer81_min        =   8.7280875121907E-51
(PID.TID 0000.0001) %MON trcstat_ptracer81_mean       =   4.3361828278907E-07
(PID.TID 0000.0001) %MON trcstat_ptracer81_sd         =   6.5165604657083E-06
(PID.TID 0000.0001) %MON trcstat_ptracer81_del2       =   1.2555360038984E-07
(PID.TID 0000.0001) %MON trcstat_ptracer82_max        =   1.5485157065912E-04
(PID.TID 0000.0001) %MON trcstat_ptracer82_min        =  -5.3354932311956E-43
(PID.TID 0000.0001) %MON trcstat_ptracer82_mean       =   8.3286959959489E-07
(PID.TID 0000.0001) %MON trcstat_ptracer82_sd         =   8.1776630450460E-06
(PID.TID 0000.0001) %MON trcstat_ptracer82_del2       =   1.5707488493340E-07
(PID.TID 0000.0001) %MON trcstat_ptracer83_max        =   2.1278208137485E-02
(PID.TID 0000.0001) %MON trcstat_ptracer83_min        =   2.1640416256285E-35
(PID.TID 0000.0001) %MON trcstat_ptracer83_mean       =   1.3866076956226E-04
(PID.TID 0000.0001) %MON trcstat_ptracer83_sd         =   8.3681900154741E-04
(PID.TID 0000.0001) %MON trcstat_ptracer83_del2       =   2.0753350712678E-05
(PID.TID 0000.0001) %MON trcstat_ptracer84_max        =   2.1663988354330E-04
(PID.TID 0000.0001) %MON trcstat_ptracer84_min        =  -3.5834620386862E-28
(PID.TID 0000.0001) %MON trcstat_ptracer84_mean       =   9.5389134388603E-07
(PID.TID 0000.0001) %MON trcstat_ptracer84_sd         =   9.9435358974669E-06
(PID.TID 0000.0001) %MON trcstat_ptracer84_del2       =   1.9192707851645E-07
(PID.TID 0000.0001) %MON trcstat_ptracer85_max        =   1.5330810594227E-04
(PID.TID 0000.0001) %MON trcstat_ptracer85_min        =   8.4297355964080E-51
(PID.TID 0000.0001) %MON trcstat_ptracer85_mean       =   4.0999362848371E-07
(PID.TID 0000.0001) %MON trcstat_ptracer85_sd         =   6.4054879700659E-06
(PID.TID 0000.0001) %MON trcstat_ptracer85_del2       =   1.2802383630011E-07
(PID.TID 0000.0001) %MON trcstat_ptracer86_max        =   1.5352862098749E-04
(PID.TID 0000.0001) %MON trcstat_ptracer86_min        =  -2.5760478690319E-17
(PID.TID 0000.0001) %MON trcstat_ptracer86_mean       =   3.9071762070543E-07
(PID.TID 0000.0001) %MON trcstat_ptracer86_sd         =   6.3680934540680E-06
(PID.TID 0000.0001) %MON trcstat_ptracer86_del2       =   1.2852519252624E-07
(PID.TID 0000.0001) %MON trcstat_ptracer87_max        =   1.5330810594228E-04
(PID.TID 0000.0001) %MON trcstat_ptracer87_min        =  -1.8778578204708E-18
(PID.TID 0000.0001) %MON trcstat_ptracer87_mean       =   4.0941701251937E-07
(PID.TID 0000.0001) %MON trcstat_ptracer87_sd         =   6.4054870895995E-06
(PID.TID 0000.0001) %MON trcstat_ptracer87_del2       =   1.2798871919945E-07
(PID.TID 0000.0001) %MON trcstat_ptracer88_max        =   1.5330810594227E-04
(PID.TID 0000.0001) %MON trcstat_ptracer88_min        =  -1.1355362096727E-18
(PID.TID 0000.0001) %MON trcstat_ptracer88_mean       =   4.0941701265235E-07
(PID.TID 0000.0001) %MON trcstat_ptracer88_sd         =   6.4054870896057E-06
(PID.TID 0000.0001) %MON trcstat_ptracer88_del2       =   1.2798871920138E-07
(PID.TID 0000.0001) %MON trcstat_ptracer89_max        =   6.3253614802293E-02
(PID.TID 0000.0001) %MON trcstat_ptracer89_min        =   4.6145768197675E-30
(PID.TID 0000.0001) %MON trcstat_ptracer89_mean       =   3.6463972182324E-03
(PID.TID 0000.0001) %MON trcstat_ptracer89_sd         =   7.9285409845710E-03
(PID.TID 0000.0001) %MON trcstat_ptracer89_del2       =   3.8136561742615E-04
(PID.TID 0000.0001) %MON trcstat_ptracer90_max        =   1.5356564182849E-04
(PID.TID 0000.0001) %MON trcstat_ptracer90_min        =  -1.3589440172057E-18
(PID.TID 0000.0001) %MON trcstat_ptracer90_mean       =   4.0195291612835E-07
(PID.TID 0000.0001) %MON trcstat_ptracer90_sd         =   6.4016704491627E-06
(PID.TID 0000.0001) %MON trcstat_ptracer90_del2       =   1.2816307466657E-07
(PID.TID 0000.0001) %MON trcstat_ptracer91_max        =   2.5960010612535E-04
(PID.TID 0000.0001) %MON trcstat_ptracer91_min        =   2.3583501536367E-24
(PID.TID 0000.0001) %MON trcstat_ptracer91_mean       =   1.0607438452939E-06
(PID.TID 0000.0001) %MON trcstat_ptracer91_sd         =   1.0959891001830E-05
(PID.TID 0000.0001) %MON trcstat_ptracer91_del2       =   2.5193901443272E-07
(PID.TID 0000.0001) %MON trcstat_ptracer92_max        =   3.2867993405036E-04
(PID.TID 0000.0001) %MON trcstat_ptracer92_min        =   8.9658367856407E-43
(PID.TID 0000.0001) %MON trcstat_ptracer92_mean       =   2.0450479219100E-06
(PID.TID 0000.0001) %MON trcstat_ptracer92_sd         =   1.5131053682193E-05
(PID.TID 0000.0001) %MON trcstat_ptracer92_del2       =   2.9446731140213E-07
(PID.TID 0000.0001) %MON trcstat_ptracer93_max        =   7.4169475301709E-03
(PID.TID 0000.0001) %MON trcstat_ptracer93_min        =   3.4056393625329E-33
(PID.TID 0000.0001) %MON trcstat_ptracer93_mean       =   1.1684133694864E-04
(PID.TID 0000.0001) %MON trcstat_ptracer93_sd         =   4.3989985415430E-04
(PID.TID 0000.0001) %MON trcstat_ptracer93_del2       =   2.0784214654515E-05
(PID.TID 0000.0001) %MON trcstat_ptracer94_max        =   1.5352862098747E-04
(PID.TID 0000.0001) %MON trcstat_ptracer94_min        =   1.2411626328379E-28
(PID.TID 0000.0001) %MON trcstat_ptracer94_mean       =   3.9071885911835E-07
(PID.TID 0000.0001) %MON trcstat_ptracer94_sd         =   6.3680934831742E-06
(PID.TID 0000.0001) %MON trcstat_ptracer94_del2       =   1.2852524198952E-07
(PID.TID 0000.0001) %MON trcstat_ptracer95_max        =   1.5330810594227E-04
(PID.TID 0000.0001) %MON trcstat_ptracer95_min        =  -4.2349792754670E-18
(PID.TID 0000.0001) %MON trcstat_ptracer95_mean       =   4.0941701252116E-07
(PID.TID 0000.0001) %MON trcstat_ptracer95_sd         =   6.4054870896136E-06
(PID.TID 0000.0001) %MON trcstat_ptracer95_del2       =   1.2798871919945E-07
(PID.TID 0000.0001) %MON trcstat_ptracer96_max        =   1.5352862098747E-04
(PID.TID 0000.0001) %MON trcstat_ptracer96_min        =  -2.6881575646729E-17
(PID.TID 0000.0001) %MON trcstat_ptracer96_mean       =   3.9071762070082E-07
(PID.TID 0000.0001) %MON trcstat_ptracer96_sd         =   6.3680934540594E-06
(PID.TID 0000.0001) %MON trcstat_ptracer96_del2       =   1.2852519252606E-07
(PID.TID 0000.0001) %MON trcstat_ptracer97_max        =   8.1482765193222E-04
(PID.TID 0000.0001) %MON trcstat_ptracer97_min        =   1.0000000000689E-50
(PID.TID 0000.0001) %MON trcstat_ptracer97_mean       =   1.8613500827792E-06
(PID.TID 0000.0001) %MON trcstat_ptracer97_sd         =   1.6916748478474E-05
(PID.TID 0000.0001) %MON trcstat_ptracer97_del2       =   3.6269790651136E-07
(PID.TID 0000.0001) %MON trcstat_ptracer98_max        =   1.5429618745119E-04
(PID.TID 0000.0001) %MON trcstat_ptracer98_min        =  -1.0142747192501E-23
(PID.TID 0000.0001) %MON trcstat_ptracer98_mean       =   5.1380069916912E-07
(PID.TID 0000.0001) %MON trcstat_ptracer98_sd         =   6.9720709471194E-06
(PID.TID 0000.0001) %MON trcstat_ptracer98_del2       =   1.2904927892114E-07
(PID.TID 0000.0001) %MON trcstat_ptracer99_max        =   1.5356564182845E-04
(PID.TID 0000.0001) %MON trcstat_ptracer99_min        =  -9.8862170101568E-22
(PID.TID 0000.0001) %MON trcstat_ptracer99_mean       =   4.0195291640757E-07
(PID.TID 0000.0001) %MON trcstat_ptracer99_sd         =   6.4016704491329E-06
(PID.TID 0000.0001) %MON trcstat_ptracer99_del2       =   1.2816307465496E-07
(PID.TID 0000.0001) // =======================================================
(PID.TID 0000.0001) // End MONITOR ptracers field statistics
(PID.TID 0000.0001) // =======================================================
(PID.TID 0000.0001)  EXF_INTERP_READ: opening file: LEV01_SSS_360x180x12.bin
(PID.TID 0000.0001)  EXF_INTERP_READ: opening file: LEV01_SSS_360x180x12.bin
(PID.TID 0000.0001)  EXF_INTERP_READ: opening file: RG_u10m99
(PID.TID 0000.0001)  EXF_INTERP_READ: opening file: RG_v10m99
(PID.TID 0000.0001)  EXF_INTERP_READ: opening file: RG_u10m99
(PID.TID 0000.0001)  EXF_INTERP_READ: opening file: RG_v10m99
(PID.TID 0000.0001)  EXF_INTERP_READ: opening file: RG_tmp2m99
(PID.TID 0000.0001)  EXF_INTERP_READ: opening file: RG_tmp2m99
(PID.TID 0000.0001)  EXF_INTERP_READ: opening file: RG_spfh2m99
(PID.TID 0000.0001)  EXF_INTERP_READ: opening file: RG_spfh2m99
(PID.TID 0000.0001)  EXF_INTERP_READ: opening file: RG_rain99
(PID.TID 0000.0001)  EXF_INTERP_READ: opening file: RG_rain99
(PID.TID 0000.0001)  EXF_INTERP_READ: opening file: RG_dsw99
(PID.TID 0000.0001)  EXF_INTERP_READ: opening file: RG_dsw99
(PID.TID 0000.0001)  EXF_INTERP_READ: opening file: RG_dlw99
(PID.TID 0000.0001)  EXF_INTERP_READ: opening file: RG_dlw99
(PID.TID 0000.0001)  EXF_INTERP_READ: opening file: runoff-360x180x12.bin
(PID.TID 0000.0001)  EXF_INTERP_READ: opening file: runoff-360x180x12.bin
(PID.TID 0000.0001) // =======================================================
(PID.TID 0000.0001) // Begin MONITOR EXF statistics
(PID.TID 0000.0001) // =======================================================
(PID.TID 0000.0001) %MON exf_tsnumber                 =                188388
(PID.TID 0000.0001) %MON exf_time_sec                 =   2.2606560000000E+08
(PID.TID 0000.0001) %MON exf_ustress_max              =   2.9394268973794E-01
(PID.TID 0000.0001) %MON exf_ustress_min              =  -3.1759067653365E-02
(PID.TID 0000.0001) %MON exf_ustress_mean             =   8.4898547027015E-02
(PID.TID 0000.0001) %MON exf_ustress_sd               =   8.0771907796319E-02
(PID.TID 0000.0001) %MON exf_ustress_del2             =   8.2156783285260E-04
(PID.TID 0000.0001) %MON exf_vstress_max              =   1.7334403505208E-01
(PID.TID 0000.0001) %MON exf_vstress_min              =  -2.1185543783975E-01
(PID.TID 0000.0001) %MON exf_vstress_mean             =  -2.2267906436285E-02
(PID.TID 0000.0001) %MON exf_vstress_sd               =   8.3491009388048E-02
(PID.TID 0000.0001) %MON exf_vstress_del2             =   1.5286344324697E-03
(PID.TID 0000.0001) %MON exf_hflux_max                =   6.1541211533908E+01
(PID.TID 0000.0001) %MON exf_hflux_min                =  -1.8300495959364E+02
(PID.TID 0000.0001) %MON exf_hflux_mean               =  -8.2345571825950E+01
(PID.TID 0000.0001) %MON exf_hflux_sd                 =   5.9310977271755E+01
(PID.TID 0000.0001) %MON exf_hflux_del2               =   2.9503036002870E+00
(PID.TID 0000.0001) %MON exf_sflux_max                =   1.3638568520951E-08
(PID.TID 0000.0001) %MON exf_sflux_min                =  -3.1156555946310E-07
(PID.TID 0000.0001) %MON exf_sflux_mean               =  -1.0353694591273E-07
(PID.TID 0000.0001) %MON exf_sflux_sd                 =   7.9557363561313E-08
(PID.TID 0000.0001) %MON exf_sflux_del2               =   1.2174064871570E-09
(PID.TID 0000.0001) %MON exf_uwind_max                =   1.2317252453288E+01
(PID.TID 0000.0001) %MON exf_uwind_min                =  -2.3903100913754E+00
(PID.TID 0000.0001) %MON exf_uwind_mean               =   6.0114948939581E+00
(PID.TID 0000.0001) %MON exf_uwind_sd                 =   3.6329961721739E+00
(PID.TID 0000.0001) %MON exf_uwind_del2               =   1.6113976872801E-01
(PID.TID 0000.0001) %MON exf_vwind_max                =   1.0789716512777E+01
(PID.TID 0000.0001) %MON exf_vwind_min                =  -9.1261651214455E+00
(PID.TID 0000.0001) %MON exf_vwind_mean               =  -1.2476857819169E+00
(PID.TID 0000.0001) %MON exf_vwind_sd                 =   5.6091840104120E+00
(PID.TID 0000.0001) %MON exf_vwind_del2               =   2.4846121142270E-01
(PID.TID 0000.0001) %MON exf_wspeed_max               =   1.4160719893304E+01
(PID.TID 0000.0001) %MON exf_wspeed_min               =   3.8459797778333E+00
(PID.TID 0000.0001) %MON exf_wspeed_mean              =   8.7106238304807E+00
(PID.TID 0000.0001) %MON exf_wspeed_sd                =   2.5458651975379E+00
(PID.TID 0000.0001) %MON exf_wspeed_del2              =   2.3759569946681E-01
(PID.TID 0000.0001) %MON exf_atemp_max                =   2.8019359262023E+02
(PID.TID 0000.0001) %MON exf_atemp_min                =   2.6683249899485E+02
(PID.TID 0000.0001) %MON exf_atemp_mean               =   2.7530663207892E+02
(PID.TID 0000.0001) %MON exf_atemp_sd                 =   2.6312708973153E+00
(PID.TID 0000.0001) %MON exf_atemp_del2               =   5.9322277118294E-02
(PID.TID 0000.0001) %MON exf_aqh_max                  =   6.1647422769168E-03
(PID.TID 0000.0001) %MON exf_aqh_min                  =   2.3838363815138E-03
(PID.TID 0000.0001) %MON exf_aqh_mean                 =   4.3694336842406E-03
(PID.TID 0000.0001) %MON exf_aqh_sd                   =   7.6847772174859E-04
(PID.TID 0000.0001) %MON exf_aqh_del2                 =   8.9717100602652E-05
(PID.TID 0000.0001) %MON exf_lwflux_max               =   8.1704897678893E+01
(PID.TID 0000.0001) %MON exf_lwflux_min               =   6.7007804364509E+00
(PID.TID 0000.0001) %MON exf_lwflux_mean              =   3.8479976207070E+01
(PID.TID 0000.0001) %MON exf_lwflux_sd                =   1.8670606614565E+01
(PID.TID 0000.0001) %MON exf_lwflux_del2              =   1.2437730207268E+00
(PID.TID 0000.0001) %MON exf_precip_max               =   3.1273821905608E-07
(PID.TID 0000.0001) %MON exf_precip_min               =   3.3477852854883E-11
(PID.TID 0000.0001) %MON exf_precip_mean              =   9.9134873596274E-08
(PID.TID 0000.0001) %MON exf_precip_sd                =   7.8353527244048E-08
(PID.TID 0000.0001) %MON exf_precip_del2              =   3.9132921734793E-09
(PID.TID 0000.0001) %MON exf_snowprecip_max           =   0.0000000000000E+00
(PID.TID 0000.0001) %MON exf_snowprecip_min           =   0.0000000000000E+00
(PID.TID 0000.0001) %MON exf_snowprecip_mean          =   0.0000000000000E+00
(PID.TID 0000.0001) %MON exf_snowprecip_sd            =   0.0000000000000E+00
(PID.TID 0000.0001) %MON exf_snowprecip_del2          =   0.0000000000000E+00
(PID.TID 0000.0001) %MON exf_swflux_max               =  -9.3170662713583E+01
(PID.TID 0000.0001) %MON exf_swflux_min               =  -2.0946293795910E+02
(PID.TID 0000.0001) %MON exf_swflux_mean              =  -1.3994322682109E+02
(PID.TID 0000.0001) %MON exf_swflux_sd                =   2.8799984950935E+01
(PID.TID 0000.0001) %MON exf_swflux_del2              =   3.1340384378366E-01
(PID.TID 0000.0001) %MON exf_evap_max                 =   2.6006619744837E-08
(PID.TID 0000.0001) %MON exf_evap_min                 =  -1.4119228109605E-08
(PID.TID 0000.0001) %MON exf_evap_mean                =   4.7787018978323E-09
(PID.TID 0000.0001) %MON exf_evap_sd                  =   8.5505323221863E-09
(PID.TID 0000.0001) %MON exf_evap_del2                =   5.9877975581647E-10
(PID.TID 0000.0001) %MON exf_swdown_max               =   2.4642698583423E+02
(PID.TID 0000.0001) %MON exf_swdown_min               =   1.0961254436892E+02
(PID.TID 0000.0001) %MON exf_swdown_mean              =   1.6463909037776E+02
(PID.TID 0000.0001) %MON exf_swdown_sd                =   3.3882335236394E+01
(PID.TID 0000.0001) %MON exf_swdown_del2              =   3.4844068880573E+00
(PID.TID 0000.0001) %MON exf_lwdown_max               =   3.0887792112451E+02
(PID.TID 0000.0001) %MON exf_lwdown_min               =   2.4299730831545E+02
(PID.TID 0000.0001) %MON exf_lwdown_mean              =   2.7692453952653E+02
(PID.TID 0000.0001) %MON exf_lwdown_sd                =   1.5127821086592E+01
(PID.TID 0000.0001) %MON exf_lwdown_del2              =   6.1705720465560E+00
(PID.TID 0000.0001) %MON exf_apressure_max            =   0.0000000000000E+00
(PID.TID 0000.0001) %MON exf_apressure_min            =   0.0000000000000E+00
(PID.TID 0000.0001) %MON exf_apressure_mean           =   0.0000000000000E+00
(PID.TID 0000.0001) %MON exf_apressure_sd             =   0.0000000000000E+00
(PID.TID 0000.0001) %MON exf_apressure_del2           =   0.0000000000000E+00
(PID.TID 0000.0001) %MON exf_runoff_max               =   7.4975011851692E-08
(PID.TID 0000.0001) %MON exf_runoff_min               =   0.0000000000000E+00
(PID.TID 0000.0001) %MON exf_runoff_mean              =   9.1807742142917E-09
(PID.TID 0000.0001) %MON exf_runoff_sd                =   1.9697588363459E-08
(PID.TID 0000.0001) %MON exf_runoff_del2              =   2.8708460564743E-10
(PID.TID 0000.0001) %MON exf_climsss_max              =   3.4374380765676E+01
(PID.TID 0000.0001) %MON exf_climsss_min              =   2.9702162078916E+00
(PID.TID 0000.0001) %MON exf_climsss_mean             =   1.3184914916356E+01
(PID.TID 0000.0001) %MON exf_climsss_sd               =   1.0358531299753E+01
(PID.TID 0000.0001) %MON exf_climsss_del2             =   4.9106974920994E-02
(PID.TID 0000.0001) // =======================================================
(PID.TID 0000.0001) // End MONITOR EXF statistics
(PID.TID 0000.0001) // =======================================================
(PID.TID 0000.0001) S/R DARWIN_FIELDS_LOAD: Reading forcing data  2.260656000000E+08     188388
(PID.TID 0000.0001)  MDS_READ_FIELD: opening global file: Fe_const_76x72_12.bin
(PID.TID 0000.0001)  MDS_READ_FIELD: opening global file: Fe_const_76x72_12.bin
 cg2d: Sum(rhs),rhsMax =  -6.12703262036779E+02  2.78614145951296E-01
(PID.TID 0000.0001)                    cg2d_init_res =    1.49432879977714E-01
(PID.TID 0000.0001)                       cg2d_iters =    20
(PID.TID 0000.0001)                         cg2d_res =    5.36933138423591E-06
 tmptotP   19424672603203.9     
 tmptotN   181339328078887.     
 tmptotFe   33450735430.8973     
 tmptotSi   480213534084228.     
 tmptotP   19424672603203.9     
 tmptotN   181339328078887.     
 tmptotFe   33450798401.1885     
 tmptotSi   480213534084229.     
 tmptotP   19424672603203.9     
 tmptotN   181339328078887.     
 tmptotFe   33450798401.1885     
 tmptotSi   480213534084229.     
 tmptotP   19424672603204.0     
 tmptotN   181339328078888.     
 tmptotFe   33450823815.3946     
 tmptotSi   480213534084230.     
 tmptotP   19424672603204.0     
 tmptotN   181339328078888.     
 tmptotFe   33450823815.3946     
 tmptotSi   480213534084230.     
 tmptotP   19424685891271.9     
 tmptotN   181339540687983.     
 tmptotFe   33450858971.0822     
 tmptotSi   480215285439066.     
 tmptotP   19424685891271.9     
 tmptotN   181339540687983.     
 tmptotFe   33450858971.0822     
 tmptotSi   480215285439066.     
 tmptotP   19424685891272.1     
 tmptotN   181339540687985.     
 tmptotFe   33450868834.0928     
 tmptotSi   480215285439068.     
(PID.TID 0000.0001) // =======================================================
(PID.TID 0000.0001) // Begin MONITOR dynamic field statistics
(PID.TID 0000.0001) // =======================================================
(PID.TID 0000.0001) %MON time_tsnumber                =                188389
(PID.TID 0000.0001) %MON time_secondsf                =   2.2606680000000E+08
(PID.TID 0000.0001) %MON dynstat_eta_max              =   6.7030656308790E-01
(PID.TID 0000.0001) %MON dynstat_eta_min              =   0.0000000000000E+00
(PID.TID 0000.0001) %MON dynstat_eta_mean             =   3.6390888696433E-01
(PID.TID 0000.0001) %MON dynstat_eta_sd               =   1.6199992773887E-01
(PID.TID 0000.0001) %MON dynstat_eta_del2             =   7.0690933898628E-03
(PID.TID 0000.0001) %MON dynstat_uvel_max             =   4.0427825294993E-01
(PID.TID 0000.0001) %MON dynstat_uvel_min             =  -3.3655197306751E-01
(PID.TID 0000.0001) %MON dynstat_uvel_mean            =   7.3427479557335E-03
(PID.TID 0000.0001) %MON dynstat_uvel_sd              =   6.1745650972307E-02
(PID.TID 0000.0001) %MON dynstat_uvel_del2            =   1.8030142867849E-02
(PID.TID 0000.0001) %MON dynstat_vvel_max             =   2.7228922743211E-01
(PID.TID 0000.0001) %MON dynstat_vvel_min             =  -4.5083264639554E-01
(PID.TID 0000.0001) %MON dynstat_vvel_mean            =   2.0540394196893E-03
(PID.TID 0000.0001) %MON dynstat_vvel_sd              =   6.4415488155529E-02
(PID.TID 0000.0001) %MON dynstat_vvel_del2            =   1.9610029285313E-02
(PID.TID 0000.0001) %MON dynstat_wvel_max             =   4.9718578846704E-04
(PID.TID 0000.0001) %MON dynstat_wvel_min             =  -5.0626326861658E-04
(PID.TID 0000.0001) %MON dynstat_wvel_mean            =  -2.5784341268685E-06
(PID.TID 0000.0001) %MON dynstat_wvel_sd              =   7.4820098371286E-05
(PID.TID 0000.0001) %MON dynstat_wvel_del2            =   3.0190453675672E-05
(PID.TID 0000.0001) %MON dynstat_theta_max            =   7.9699951063871E+00
(PID.TID 0000.0001) %MON dynstat_theta_min            =  -1.6138384110613E+00
(PID.TID 0000.0001) %MON dynstat_theta_mean           =   3.8277076882009E+00
(PID.TID 0000.0001) %MON dynstat_theta_sd             =   2.2087812821722E+00
(PID.TID 0000.0001) %MON dynstat_theta_del2           =   1.1601087804472E-01
(PID.TID 0000.0001) %MON dynstat_salt_max             =   3.4929528017513E+01
(PID.TID 0000.0001) %MON dynstat_salt_min             =   5.6522115677698E+00
(PID.TID 0000.0001) %MON dynstat_salt_mean            =   1.5735515320684E+01
(PID.TID 0000.0001) %MON dynstat_salt_sd              =   1.2130118241809E+01
(PID.TID 0000.0001) %MON dynstat_salt_del2            =   5.1595735633851E-02
(PID.TID 0000.0001) %MON extforcing_qnet_max          =   2.2599028362965E+02
(PID.TID 0000.0001) %MON extforcing_qnet_min          =  -8.5354443894150E+02
(PID.TID 0000.0001) %MON extforcing_qnet_mean         =  -6.1986370953015E+01
(PID.TID 0000.0001) %MON extforcing_qnet_sd           =   8.5489144849151E+01
(PID.TID 0000.0001) %MON extforcing_qnet_del2         =   1.5186728091626E+01
(PID.TID 0000.0001) %MON extforcing_qsw_max           =   0.0000000000000E+00
(PID.TID 0000.0001) %MON extforcing_qsw_min           =  -2.0946293795910E+02
(PID.TID 0000.0001) %MON extforcing_qsw_mean          =  -1.1414402519468E+02
(PID.TID 0000.0001) %MON extforcing_qsw_sd            =   6.2531076104069E+01
(PID.TID 0000.0001) %MON extforcing_qsw_del2          =   2.4776024497378E+00
(PID.TID 0000.0001) %MON extforcing_empmr_max         =   2.2824480289238E-03
(PID.TID 0000.0001) %MON extforcing_empmr_min         =  -1.0423055935942E-03
(PID.TID 0000.0001) %MON extforcing_empmr_mean        =  -1.0473852641875E-04
(PID.TID 0000.0001) %MON extforcing_empmr_sd          =   2.0360362416564E-04
(PID.TID 0000.0001) %MON extforcing_empmr_del2        =   4.2906191491261E-05
(PID.TID 0000.0001) %MON advcfl_uvel_max              =   2.3209278788239E-02
(PID.TID 0000.0001) %MON advcfl_vvel_max              =   3.3116243335204E-02
(PID.TID 0000.0001) %MON advcfl_wvel_max              =   5.9662294616044E-02
(PID.TID 0000.0001) %MON advcfl_W_hf_max              =   5.9662294616044E-02
(PID.TID 0000.0001) %MON pe_b_mean                    =   1.3460814265531E-02
(PID.TID 0000.0001) %MON ke_max                       =   1.1041462984664E-01
(PID.TID 0000.0001) %MON ke_mean                      =   3.2393460212491E-03
(PID.TID 0000.0001) %MON ke_vol                       =   2.8199008699639E+13
(PID.TID 0000.0001) %MON vort_r_min                   =  -3.7119399646128E-05
(PID.TID 0000.0001) %MON vort_r_max                   =   3.2860440713888E-05
(PID.TID 0000.0001) %MON vort_a_mean                  =   1.2397552904774E-04
(PID.TID 0000.0001) %MON vort_a_sd                    =   6.2891321352759E-06
(PID.TID 0000.0001) %MON vort_p_mean                  =   1.7325641031781E-04
(PID.TID 0000.0001) %MON vort_p_sd                    =   1.0960916190271E-04
(PID.TID 0000.0001) %MON surfExpan_theta_mean         =  -6.9547308432373E-07
(PID.TID 0000.0001) %MON surfExpan_salt_mean          =   1.3138657724209E-06
(PID.TID 0000.0001) // =======================================================
(PID.TID 0000.0001) // End MONITOR dynamic field statistics
(PID.TID 0000.0001) // =======================================================
(PID.TID 0000.0001) // =======================================================
(PID.TID 0000.0001) // Begin MONITOR SEAICE statistics
(PID.TID 0000.0001) // =======================================================
(PID.TID 0000.0001) %MON seaice_tsnumber              =                188389
(PID.TID 0000.0001) %MON seaice_time_sec              =   2.2606680000000E+08
(PID.TID 0000.0001) %MON seaice_area_max              =   1.0000000000000E+00
(PID.TID 0000.0001) %MON seaice_area_min              =   0.0000000000000E+00
(PID.TID 0000.0001) %MON seaice_area_mean             =   2.2097867356680E-01
(PID.TID 0000.0001) %MON seaice_area_sd               =   3.8246849821931E-01
(PID.TID 0000.0001) %MON seaice_area_del2             =   1.9165207474268E-02
(PID.TID 0000.0001) %MON seaice_heff_max              =   1.0116465270676E+00
(PID.TID 0000.0001) %MON seaice_heff_min              =   0.0000000000000E+00
(PID.TID 0000.0001) %MON seaice_heff_mean             =   1.2224955612026E-01
(PID.TID 0000.0001) %MON seaice_heff_sd               =   2.4119254638370E-01
(PID.TID 0000.0001) %MON seaice_heff_del2             =   1.0390687712290E-02
(PID.TID 0000.0001) %MON seaice_hsnow_max             =   2.7590247153237E-01
(PID.TID 0000.0001) %MON seaice_hsnow_min             =   0.0000000000000E+00
(PID.TID 0000.0001) %MON seaice_hsnow_mean            =   3.0066197213142E-02
(PID.TID 0000.0001) %MON seaice_hsnow_sd              =   6.3625834105303E-02
(PID.TID 0000.0001) %MON seaice_hsnow_del2            =   1.8674388121050E-03
(PID.TID 0000.0001) // =======================================================
(PID.TID 0000.0001) // End MONITOR SEAICE statistics
(PID.TID 0000.0001) // =======================================================
(PID.TID 0000.0001) // =======================================================
(PID.TID 0000.0001) // Begin MONITOR ptracer field statistics
(PID.TID 0000.0001) // =======================================================
(PID.TID 0000.0001) %MON trcstat_ptracer01_max        =   4.3206435661107E+00
(PID.TID 0000.0001) %MON trcstat_ptracer01_min        =   3.7999557916206E-02
(PID.TID 0000.0001) %MON trcstat_ptracer01_mean       =   5.8694658997124E-01
(PID.TID 0000.0001) %MON trcstat_ptracer01_sd         =   5.1392427705651E-01
(PID.TID 0000.0001) %MON trcstat_ptracer01_del2       =   1.3830326187698E-02
(PID.TID 0000.0001) %MON trcstat_ptracer02_max        =   4.4160932396226E+01
(PID.TID 0000.0001) %MON trcstat_ptracer02_min        =   1.4930485379834E-02
(PID.TID 0000.0001) %MON trcstat_ptracer02_mean       =   4.6207346723828E+00
(PID.TID 0000.0001) %MON trcstat_ptracer02_sd         =   6.6644946738967E+00
(PID.TID 0000.0001) %MON trcstat_ptracer02_del2       =   2.0278168363578E-01
(PID.TID 0000.0001) %MON trcstat_ptracer03_max        =   1.3876604593126E-03
(PID.TID 0000.0001) %MON trcstat_ptracer03_min        =   5.8883013930983E-04
(PID.TID 0000.0001) %MON trcstat_ptracer03_mean       =   1.0856995759756E-03
(PID.TID 0000.0001) %MON trcstat_ptracer03_sd         =   1.4468434505414E-04
(PID.TID 0000.0001) %MON trcstat_ptracer03_del2       =   9.1886171059242E-06
(PID.TID 0000.0001) %MON trcstat_ptracer04_max        =   1.5669735846834E+02
(PID.TID 0000.0001) %MON trcstat_ptracer04_min        =   6.2855950612780E-02
(PID.TID 0000.0001) %MON trcstat_ptracer04_mean       =   1.4507227582746E+01
(PID.TID 0000.0001) %MON trcstat_ptracer04_sd         =   1.6978030742261E+01
(PID.TID 0000.0001) %MON trcstat_ptracer04_del2       =   3.9866411512625E-01
(PID.TID 0000.0001) %MON trcstat_ptracer05_max        =   2.8327734123729E-01
(PID.TID 0000.0001) %MON trcstat_ptracer05_min        =   8.3393393610999E-08
(PID.TID 0000.0001) %MON trcstat_ptracer05_mean       =   5.9535999363525E-02
(PID.TID 0000.0001) %MON trcstat_ptracer05_sd         =   5.7211779681426E-02
(PID.TID 0000.0001) %MON trcstat_ptracer05_del2       =   2.5843990756654E-03
(PID.TID 0000.0001) %MON trcstat_ptracer06_max        =   4.5324374597966E+00
(PID.TID 0000.0001) %MON trcstat_ptracer06_min        =   1.3342942977760E-06
(PID.TID 0000.0001) %MON trcstat_ptracer06_mean       =   9.5257598981639E-01
(PID.TID 0000.0001) %MON trcstat_ptracer06_sd         =   9.1538847490281E-01
(PID.TID 0000.0001) %MON trcstat_ptracer06_del2       =   4.1350385210647E-02
(PID.TID 0000.0001) %MON trcstat_ptracer07_max        =   2.8327734123728E-04
(PID.TID 0000.0001) %MON trcstat_ptracer07_min        =   8.3393393611002E-11
(PID.TID 0000.0001) %MON trcstat_ptracer07_mean       =   5.9535999358341E-05
(PID.TID 0000.0001) %MON trcstat_ptracer07_sd         =   5.7211779743611E-05
(PID.TID 0000.0001) %MON trcstat_ptracer07_del2       =   2.5843990916552E-06
(PID.TID 0000.0001) %MON trcstat_ptracer08_max        =   7.1910590740235E-03
(PID.TID 0000.0001) %MON trcstat_ptracer08_min        =   6.8560248367692E-33
(PID.TID 0000.0001) %MON trcstat_ptracer08_mean       =   5.1886645074039E-04
(PID.TID 0000.0001) %MON trcstat_ptracer08_sd         =   1.1965471073849E-03
(PID.TID 0000.0001) %MON trcstat_ptracer08_del2       =   3.3620575878588E-05
(PID.TID 0000.0001) %MON trcstat_ptracer09_max        =   1.1505694518438E-01
(PID.TID 0000.0001) %MON trcstat_ptracer09_min        =   1.0969639738831E-31
(PID.TID 0000.0001) %MON trcstat_ptracer09_mean       =   8.3018632118463E-03
(PID.TID 0000.0001) %MON trcstat_ptracer09_sd         =   1.9144753718158E-02
(PID.TID 0000.0001) %MON trcstat_ptracer09_del2       =   5.3792921405741E-04
(PID.TID 0000.0001) %MON trcstat_ptracer10_max        =   7.1910591770701E-06
(PID.TID 0000.0001) %MON trcstat_ptracer10_min        =   6.8560248367977E-36
(PID.TID 0000.0001) %MON trcstat_ptracer10_mean       =   5.1886645178896E-07
(PID.TID 0000.0001) %MON trcstat_ptracer10_sd         =   1.1965471097581E-06
(PID.TID 0000.0001) %MON trcstat_ptracer10_del2       =   3.3620575973962E-08
(PID.TID 0000.0001) %MON trcstat_ptracer11_max        =   8.8795592299265E-03
(PID.TID 0000.0001) %MON trcstat_ptracer11_min        =   1.9293401882277E-32
(PID.TID 0000.0001) %MON trcstat_ptracer11_mean       =   3.6928456516173E-04
(PID.TID 0000.0001) %MON trcstat_ptracer11_sd         =   1.3655557462129E-03
(PID.TID 0000.0001) %MON trcstat_ptracer11_del2       =   3.7974829088545E-05
(PID.TID 0000.0001) %MON trcstat_ptracer12_max        =   8.4348342713323E-02
(PID.TID 0000.0001) %MON trcstat_ptracer12_min        =   8.7783804228000E-23
(PID.TID 0000.0001) %MON trcstat_ptracer12_mean       =   1.7685405527694E-03
(PID.TID 0000.0001) %MON trcstat_ptracer12_sd         =   7.4754720223648E-03
(PID.TID 0000.0001) %MON trcstat_ptracer12_del2       =   1.9289343766759E-04
(PID.TID 0000.0001) %MON trcstat_ptracer13_max        =   1.3495734834132E+00
(PID.TID 0000.0001) %MON trcstat_ptracer13_min        =   1.4045408676480E-21
(PID.TID 0000.0001) %MON trcstat_ptracer13_mean       =   2.8296648844310E-02
(PID.TID 0000.0001) %MON trcstat_ptracer13_sd         =   1.1960755235784E-01
(PID.TID 0000.0001) %MON trcstat_ptracer13_del2       =   3.0862950026814E-03
(PID.TID 0000.0001) %MON trcstat_ptracer14_max        =   8.4348342765379E-05
(PID.TID 0000.0001) %MON trcstat_ptracer14_min        =   8.7783804227986E-26
(PID.TID 0000.0001) %MON trcstat_ptracer14_mean       =   1.7685405541003E-06
(PID.TID 0000.0001) %MON trcstat_ptracer14_sd         =   7.4754720258962E-06
(PID.TID 0000.0001) %MON trcstat_ptracer14_del2       =   1.9289343772594E-07
(PID.TID 0000.0001) %MON trcstat_ptracer15_max        =   9.5139090710524E-01
(PID.TID 0000.0001) %MON trcstat_ptracer15_min        =   9.4297789925694E-22
(PID.TID 0000.0001) %MON trcstat_ptracer15_mean       =   1.8821895618895E-02
(PID.TID 0000.0001) %MON trcstat_ptracer15_sd         =   9.1964097915159E-02
(PID.TID 0000.0001) %MON trcstat_ptracer15_del2       =   2.6744929280468E-03
(PID.TID 0000.0001) %MON trcstat_ptracer16_max        =   1.0073423290224E+00
(PID.TID 0000.0001) %MON trcstat_ptracer16_min        =   3.3779910009695E-09
(PID.TID 0000.0001) %MON trcstat_ptracer16_mean       =   2.0807583140247E-02
(PID.TID 0000.0001) %MON trcstat_ptracer16_sd         =   4.8910281830917E-02
(PID.TID 0000.0001) %MON trcstat_ptracer16_del2       =   3.4996217757653E-03
(PID.TID 0000.0001) %MON trcstat_ptracer17_max        =   1.6117477264358E+01
(PID.TID 0000.0001) %MON trcstat_ptracer17_min        =   5.4047856015513E-08
(PID.TID 0000.0001) %MON trcstat_ptracer17_mean       =   3.3292133024396E-01
(PID.TID 0000.0001) %MON trcstat_ptracer17_sd         =   7.8256450929468E-01
(PID.TID 0000.0001) %MON trcstat_ptracer17_del2       =   5.5993948412244E-02
(PID.TID 0000.0001) %MON trcstat_ptracer18_max        =   1.0073423290224E-03
(PID.TID 0000.0001) %MON trcstat_ptracer18_min        =   3.3779910009695E-12
(PID.TID 0000.0001) %MON trcstat_ptracer18_mean       =   2.0807583144382E-05
(PID.TID 0000.0001) %MON trcstat_ptracer18_sd         =   4.8910281825397E-05
(PID.TID 0000.0001) %MON trcstat_ptracer18_del2       =   3.4996217771270E-06
(PID.TID 0000.0001) %MON trcstat_ptracer19_max        =   3.0560054561533E+02
(PID.TID 0000.0001) %MON trcstat_ptracer19_min        =   9.2112495117238E-08
(PID.TID 0000.0001) %MON trcstat_ptracer19_mean       =   2.2603771950191E+00
(PID.TID 0000.0001) %MON trcstat_ptracer19_sd         =   1.2396804722622E+01
(PID.TID 0000.0001) %MON trcstat_ptracer19_del2       =   3.9050506227680E-01
(PID.TID 0000.0001) %MON trcstat_ptracer20_max        =   1.9611153704360E+00
(PID.TID 0000.0001) %MON trcstat_ptracer20_min        =   2.2576792380638E-07
(PID.TID 0000.0001) %MON trcstat_ptracer20_mean       =   1.7232655970477E-02
(PID.TID 0000.0001) %MON trcstat_ptracer20_sd         =   8.2081974463836E-02
(PID.TID 0000.0001) %MON trcstat_ptracer20_del2       =   2.9005604401424E-03
(PID.TID 0000.0001) %MON trcstat_ptracer21_max        =   2.3339676616426E+00
(PID.TID 0000.0001) %MON trcstat_ptracer21_min        =   3.0205736243327E-05
(PID.TID 0000.0001) %MON trcstat_ptracer21_mean       =   1.6310400986035E-01
(PID.TID 0000.0001) %MON trcstat_ptracer21_sd         =   1.9127861057608E-01
(PID.TID 0000.0001) %MON trcstat_ptracer21_del2       =   1.0655317814311E-02
(PID.TID 0000.0001) %MON trcstat_ptracer22_max        =   1.5355929546637E-04
(PID.TID 0000.0001) %MON trcstat_ptracer22_min        =  -2.1068568893064E-19
(PID.TID 0000.0001) %MON trcstat_ptracer22_mean       =   4.0981220248690E-07
(PID.TID 0000.0001) %MON trcstat_ptracer22_sd         =   6.4117711060592E-06
(PID.TID 0000.0001) %MON trcstat_ptracer22_del2       =   1.2811424736633E-07
(PID.TID 0000.0001) %MON trcstat_ptracer23_max        =   5.2613912593392E-04
(PID.TID 0000.0001) %MON trcstat_ptracer23_min        =  -2.2601834254160E-24
(PID.TID 0000.0001) %MON trcstat_ptracer23_mean       =   8.3010664068180E-06
(PID.TID 0000.0001) %MON trcstat_ptracer23_sd         =   4.1644869447461E-05
(PID.TID 0000.0001) %MON trcstat_ptracer23_del2       =   9.8432877425670E-07
(PID.TID 0000.0001) %MON trcstat_ptracer24_max        =   1.5355929546641E-04
(PID.TID 0000.0001) %MON trcstat_ptracer24_min        =   5.7063431868861E-51
(PID.TID 0000.0001) %MON trcstat_ptracer24_mean       =   4.0994497149723E-07
(PID.TID 0000.0001) %MON trcstat_ptracer24_sd         =   6.4117626243066E-06
(PID.TID 0000.0001) %MON trcstat_ptracer24_del2       =   1.2812530246030E-07
(PID.TID 0000.0001) %MON trcstat_ptracer25_max        =   1.5435506012402E-04
(PID.TID 0000.0001) %MON trcstat_ptracer25_min        =   8.0653053381275E-34
(PID.TID 0000.0001) %MON trcstat_ptracer25_mean       =   3.2137683607453E-06
(PID.TID 0000.0001) %MON trcstat_ptracer25_sd         =   1.3127979679459E-05
(PID.TID 0000.0001) %MON trcstat_ptracer25_del2       =   7.3833943679819E-07
(PID.TID 0000.0001) %MON trcstat_ptracer26_max        =   1.5444498611348E-04
(PID.TID 0000.0001) %MON trcstat_ptracer26_min        =  -2.6877975708119E-17
(PID.TID 0000.0001) %MON trcstat_ptracer26_mean       =   3.9302490340359E-07
(PID.TID 0000.0001) %MON trcstat_ptracer26_sd         =   6.4082501911516E-06
(PID.TID 0000.0001) %MON trcstat_ptracer26_del2       =   1.2928099957139E-07
(PID.TID 0000.0001) %MON trcstat_ptracer27_max        =   9.6712666511613E-03
(PID.TID 0000.0001) %MON trcstat_ptracer27_min        =   1.2895098686143E-19
(PID.TID 0000.0001) %MON trcstat_ptracer27_mean       =   2.5625905729788E-04
(PID.TID 0000.0001) %MON trcstat_ptracer27_sd         =   6.8150853496007E-04
(PID.TID 0000.0001) %MON trcstat_ptracer27_del2       =   4.2808285520068E-05
(PID.TID 0000.0001) %MON trcstat_ptracer28_max        =   9.2443347893130E-02
(PID.TID 0000.0001) %MON trcstat_ptracer28_min        =   6.7039063102285E-24
(PID.TID 0000.0001) %MON trcstat_ptracer28_mean       =   1.7120708278525E-03
(PID.TID 0000.0001) %MON trcstat_ptracer28_sd         =   5.9447192910185E-03
(PID.TID 0000.0001) %MON trcstat_ptracer28_del2       =   3.0855599916980E-04
(PID.TID 0000.0001) %MON trcstat_ptracer29_max        =   1.0586802633142E-03
(PID.TID 0000.0001) %MON trcstat_ptracer29_min        =   9.9999999999874E-51
(PID.TID 0000.0001) %MON trcstat_ptracer29_mean       =   3.3583163695120E-06
(PID.TID 0000.0001) %MON trcstat_ptracer29_sd         =   2.4876823341180E-05
(PID.TID 0000.0001) %MON trcstat_ptracer29_del2       =   4.7221047884560E-07
(PID.TID 0000.0001) %MON trcstat_ptracer30_max        =   1.4170356686712E-02
(PID.TID 0000.0001) %MON trcstat_ptracer30_min        =   1.2230673040930E-29
(PID.TID 0000.0001) %MON trcstat_ptracer30_mean       =   1.8313250621353E-04
(PID.TID 0000.0001) %MON trcstat_ptracer30_sd         =   9.4004854623843E-04
(PID.TID 0000.0001) %MON trcstat_ptracer30_del2       =   3.4951801565825E-05
(PID.TID 0000.0001) %MON trcstat_ptracer31_max        =   1.5490243503498E-04
(PID.TID 0000.0001) %MON trcstat_ptracer31_min        =   1.2590527837718E-14
(PID.TID 0000.0001) %MON trcstat_ptracer31_mean       =   4.0670558660512E-07
(PID.TID 0000.0001) %MON trcstat_ptracer31_sd         =   6.4600943140822E-06
(PID.TID 0000.0001) %MON trcstat_ptracer31_del2       =   1.2940740158359E-07
(PID.TID 0000.0001) %MON trcstat_ptracer32_max        =   1.5369735188799E-04
(PID.TID 0000.0001) %MON trcstat_ptracer32_min        =  -5.4490588694353E-19
(PID.TID 0000.0001) %MON trcstat_ptracer32_mean       =   4.0237526324576E-07
(PID.TID 0000.0001) %MON trcstat_ptracer32_sd         =   6.4079864207052E-06
(PID.TID 0000.0001) %MON trcstat_ptracer32_del2       =   1.2827597643601E-07
(PID.TID 0000.0001) %MON trcstat_ptracer33_max        =   1.5355806259139E-04
(PID.TID 0000.0001) %MON trcstat_ptracer33_min        =  -2.0621699667297E-21
(PID.TID 0000.0001) %MON trcstat_ptracer33_mean       =   3.9122329235923E-07
(PID.TID 0000.0001) %MON trcstat_ptracer33_sd         =   6.3751350188070E-06
(PID.TID 0000.0001) %MON trcstat_ptracer33_del2       =   1.2861486429623E-07
(PID.TID 0000.0001) %MON trcstat_ptracer34_max        =   1.5362173247690E-04
(PID.TID 0000.0001) %MON trcstat_ptracer34_min        =   5.6877373028993E-51
(PID.TID 0000.0001) %MON trcstat_ptracer34_mean       =   4.0984608403777E-07
(PID.TID 0000.0001) %MON trcstat_ptracer34_sd         =   6.4121499224235E-06
(PID.TID 0000.0001) %MON trcstat_ptracer34_del2       =   1.2809986394331E-07
(PID.TID 0000.0001) %MON trcstat_ptracer35_max        =   1.5408525280219E-04
(PID.TID 0000.0001) %MON trcstat_ptracer35_min        =  -2.5992985336126E-17
(PID.TID 0000.0001) %MON trcstat_ptracer35_mean       =   3.9260569873569E-07
(PID.TID 0000.0001) %MON trcstat_ptracer35_sd         =   6.3992973707657E-06
(PID.TID 0000.0001) %MON trcstat_ptracer35_del2       =   1.2910449919106E-07
(PID.TID 0000.0001) %MON trcstat_ptracer36_max        =   1.5354203973062E-04
(PID.TID 0000.0001) %MON trcstat_ptracer36_min        =  -5.8860784472533E-19
(PID.TID 0000.0001) %MON trcstat_ptracer36_mean       =   4.0973862615014E-07
(PID.TID 0000.0001) %MON trcstat_ptracer36_sd         =   6.4110245430492E-06
(PID.TID 0000.0001) %MON trcstat_ptracer36_del2       =   1.2810304271439E-07
(PID.TID 0000.0001) %MON trcstat_ptracer37_max        =   1.5477989207535E-04
(PID.TID 0000.0001) %MON trcstat_ptracer37_min        =  -3.8818100488273E-36
(PID.TID 0000.0001) %MON trcstat_ptracer37_mean       =   4.1575771509416E-07
(PID.TID 0000.0001) %MON trcstat_ptracer37_sd         =   6.4646964543968E-06
(PID.TID 0000.0001) %MON trcstat_ptracer37_del2       =   1.2933980217890E-07
(PID.TID 0000.0001) %MON trcstat_ptracer38_max        =   1.5363184999878E-04
(PID.TID 0000.0001) %MON trcstat_ptracer38_min        =   9.8830745206114E-51
(PID.TID 0000.0001) %MON trcstat_ptracer38_mean       =   4.6355479408332E-07
(PID.TID 0000.0001) %MON trcstat_ptracer38_sd         =   6.5743049557427E-06
(PID.TID 0000.0001) %MON trcstat_ptracer38_del2       =   1.3003473125433E-07
(PID.TID 0000.0001) %MON trcstat_ptracer39_max        =   2.8343724202895E-03
(PID.TID 0000.0001) %MON trcstat_ptracer39_min        =   7.4217719854648E-33
(PID.TID 0000.0001) %MON trcstat_ptracer39_mean       =   1.9636074979267E-05
(PID.TID 0000.0001) %MON trcstat_ptracer39_sd         =   1.3526090828664E-04
(PID.TID 0000.0001) %MON trcstat_ptracer39_del2       =   3.5221177915494E-06
(PID.TID 0000.0001) %MON trcstat_ptracer40_max        =   1.5354203973063E-04
(PID.TID 0000.0001) %MON trcstat_ptracer40_min        =  -7.0886205306079E-19
(PID.TID 0000.0001) %MON trcstat_ptracer40_mean       =   4.0973862445367E-07
(PID.TID 0000.0001) %MON trcstat_ptracer40_sd         =   6.4110245431601E-06
(PID.TID 0000.0001) %MON trcstat_ptracer40_del2       =   1.2810304268339E-07
(PID.TID 0000.0001) %MON trcstat_ptracer41_max        =   1.5343979575859E-04
(PID.TID 0000.0001) %MON trcstat_ptracer41_min        =  -4.8650340804781E-18
(PID.TID 0000.0001) %MON trcstat_ptracer41_mean       =   4.0986171628364E-07
(PID.TID 0000.0001) %MON trcstat_ptracer41_sd         =   6.4118640978542E-06
(PID.TID 0000.0001) %MON trcstat_ptracer41_del2       =   1.2808629292963E-07
(PID.TID 0000.0001) %MON trcstat_ptracer42_max        =   1.5415327496694E-04
(PID.TID 0000.0001) %MON trcstat_ptracer42_min        =   7.4446493144098E-17
(PID.TID 0000.0001) %MON trcstat_ptracer42_mean       =   3.9360654894264E-07
(PID.TID 0000.0001) %MON trcstat_ptracer42_sd         =   6.4021314313720E-06
(PID.TID 0000.0001) %MON trcstat_ptracer42_del2       =   1.2931382366791E-07
(PID.TID 0000.0001) %MON trcstat_ptracer43_max        =   1.0588315098165E-03
(PID.TID 0000.0001) %MON trcstat_ptracer43_min        =   5.4312194497557E-14
(PID.TID 0000.0001) %MON trcstat_ptracer43_mean       =   2.5204428138984E-05
(PID.TID 0000.0001) %MON trcstat_ptracer43_sd         =   8.8162052423012E-05
(PID.TID 0000.0001) %MON trcstat_ptracer43_del2       =   4.6471262765303E-06
(PID.TID 0000.0001) %MON trcstat_ptracer44_max        =   1.5354203973057E-04
(PID.TID 0000.0001) %MON trcstat_ptracer44_min        =  -1.3558520158725E-31
(PID.TID 0000.0001) %MON trcstat_ptracer44_mean       =   4.0975782432020E-07
(PID.TID 0000.0001) %MON trcstat_ptracer44_sd         =   6.4110233176826E-06
(PID.TID 0000.0001) %MON trcstat_ptracer44_del2       =   1.2810417055891E-07
(PID.TID 0000.0001) %MON trcstat_ptracer45_max        =   1.5429569905894E-04
(PID.TID 0000.0001) %MON trcstat_ptracer45_min        =   1.4103338096314E-50
(PID.TID 0000.0001) %MON trcstat_ptracer45_mean       =   6.6264756189408E-07
(PID.TID 0000.0001) %MON trcstat_ptracer45_sd         =   7.3367585501398E-06
(PID.TID 0000.0001) %MON trcstat_ptracer45_del2       =   1.5168882008800E-07
(PID.TID 0000.0001) %MON trcstat_ptracer46_max        =   1.5443569675714E-04
(PID.TID 0000.0001) %MON trcstat_ptracer46_min        =  -6.1881333365505E-21
(PID.TID 0000.0001) %MON trcstat_ptracer46_mean       =   4.0415262381652E-07
(PID.TID 0000.0001) %MON trcstat_ptracer46_sd         =   6.4396264095599E-06
(PID.TID 0000.0001) %MON trcstat_ptracer46_del2       =   1.2888064658629E-07
(PID.TID 0000.0001) %MON trcstat_ptracer47_max        =   1.5355929546641E-04
(PID.TID 0000.0001) %MON trcstat_ptracer47_min        =  -5.1796883055742E-19
(PID.TID 0000.0001) %MON trcstat_ptracer47_mean       =   4.0981174027026E-07
(PID.TID 0000.0001) %MON trcstat_ptracer47_sd         =   6.4117711357544E-06
(PID.TID 0000.0001) %MON trcstat_ptracer47_del2       =   1.2811422852074E-07
(PID.TID 0000.0001) %MON trcstat_ptracer48_max        =   1.5355929546641E-04
(PID.TID 0000.0001) %MON trcstat_ptracer48_min        =  -7.7573414926216E-35
(PID.TID 0000.0001) %MON trcstat_ptracer48_mean       =   4.0981219051293E-07
(PID.TID 0000.0001) %MON trcstat_ptracer48_sd         =   6.4117711068291E-06
(PID.TID 0000.0001) %MON trcstat_ptracer48_del2       =   1.2811424281215E-07
(PID.TID 0000.0001) %MON trcstat_ptracer49_max        =   1.5355929546641E-04
(PID.TID 0000.0001) %MON trcstat_ptracer49_min        =   7.8263705785771E-51
(PID.TID 0000.0001) %MON trcstat_ptracer49_mean       =   4.2490682538407E-07
(PID.TID 0000.0001) %MON trcstat_ptracer49_sd         =   6.4110666877893E-06
(PID.TID 0000.0001) %MON trcstat_ptracer49_del2       =   1.3105704672627E-07
(PID.TID 0000.0001) %MON trcstat_ptracer50_max        =   1.5364056696874E-04
(PID.TID 0000.0001) %MON trcstat_ptracer50_min        =   9.6061500435359E-51
(PID.TID 0000.0001) %MON trcstat_ptracer50_mean       =   4.6549362698786E-07
(PID.TID 0000.0001) %MON trcstat_ptracer50_sd         =   6.6452955070352E-06
(PID.TID 0000.0001) %MON trcstat_ptracer50_del2       =   1.2406562689195E-07
(PID.TID 0000.0001) %MON trcstat_ptracer51_max        =   1.5376150977978E-04
(PID.TID 0000.0001) %MON trcstat_ptracer51_min        =   1.0000000769503E-50
(PID.TID 0000.0001) %MON trcstat_ptracer51_mean       =   4.2545293212256E-07
(PID.TID 0000.0001) %MON trcstat_ptracer51_sd         =   6.4176153774883E-06
(PID.TID 0000.0001) %MON trcstat_ptracer51_del2       =   1.2935370824682E-07
(PID.TID 0000.0001) %MON trcstat_ptracer52_max        =   1.5450138716414E-04
(PID.TID 0000.0001) %MON trcstat_ptracer52_min        =   4.4995584580437E-50
(PID.TID 0000.0001) %MON trcstat_ptracer52_mean       =   4.4039263082288E-07
(PID.TID 0000.0001) %MON trcstat_ptracer52_sd         =   6.5856003900737E-06
(PID.TID 0000.0001) %MON trcstat_ptracer52_del2       =   1.2672453267252E-07
(PID.TID 0000.0001) %MON trcstat_ptracer53_max        =   1.5355806259141E-04
(PID.TID 0000.0001) %MON trcstat_ptracer53_min        =  -2.5762988610006E-17
(PID.TID 0000.0001) %MON trcstat_ptracer53_mean       =   3.9122329216429E-07
(PID.TID 0000.0001) %MON trcstat_ptracer53_sd         =   6.3751350188386E-06
(PID.TID 0000.0001) %MON trcstat_ptracer53_del2       =   1.2861486428552E-07
(PID.TID 0000.0001) %MON trcstat_ptracer54_max        =   1.5355929546642E-04
(PID.TID 0000.0001) %MON trcstat_ptracer54_min        =  -4.2532941173473E-18
(PID.TID 0000.0001) %MON trcstat_ptracer54_mean       =   4.0981172195348E-07
(PID.TID 0000.0001) %MON trcstat_ptracer54_sd         =   6.4117711369597E-06
(PID.TID 0000.0001) %MON trcstat_ptracer54_del2       =   1.2811422825740E-07
(PID.TID 0000.0001) %MON trcstat_ptracer55_max        =   1.5355806259141E-04
(PID.TID 0000.0001) %MON trcstat_ptracer55_min        =  -2.1334497134325E-23
(PID.TID 0000.0001) %MON trcstat_ptracer55_mean       =   3.9122329251934E-07
(PID.TID 0000.0001) %MON trcstat_ptracer55_sd         =   6.3751350188162E-06
(PID.TID 0000.0001) %MON trcstat_ptracer55_del2       =   1.2861486429200E-07
(PID.TID 0000.0001) %MON trcstat_ptracer56_max        =   2.9295311996799E-02
(PID.TID 0000.0001) %MON trcstat_ptracer56_min        =   4.4564075781036E-41
(PID.TID 0000.0001) %MON trcstat_ptracer56_mean       =   3.4346835075840E-04
(PID.TID 0000.0001) %MON trcstat_ptracer56_sd         =   1.8369825556095E-03
(PID.TID 0000.0001) %MON trcstat_ptracer56_del2       =   4.6578204514032E-05
(PID.TID 0000.0001) %MON trcstat_ptracer57_max        =   5.3397503390431E-04
(PID.TID 0000.0001) %MON trcstat_ptracer57_min        =   1.6274199021989E-44
(PID.TID 0000.0001) %MON trcstat_ptracer57_mean       =   1.2430236345732E-06
(PID.TID 0000.0001) %MON trcstat_ptracer57_sd         =   1.1346833433302E-05
(PID.TID 0000.0001) %MON trcstat_ptracer57_del2       =   2.5947002899965E-07
(PID.TID 0000.0001) %MON trcstat_ptracer58_max        =   1.5494807032309E-04
(PID.TID 0000.0001) %MON trcstat_ptracer58_min        =   9.9237758722778E-34
(PID.TID 0000.0001) %MON trcstat_ptracer58_mean       =   5.6071397761366E-07
(PID.TID 0000.0001) %MON trcstat_ptracer58_sd         =   7.4070226452374E-06
(PID.TID 0000.0001) %MON trcstat_ptracer58_del2       =   1.3817847789097E-07
(PID.TID 0000.0001) %MON trcstat_ptracer59_max        =   1.5404660544000E-04
(PID.TID 0000.0001) %MON trcstat_ptracer59_min        =   9.7961421508892E-51
(PID.TID 0000.0001) %MON trcstat_ptracer59_mean       =   4.9719434660213E-07
(PID.TID 0000.0001) %MON trcstat_ptracer59_sd         =   6.7163559639395E-06
(PID.TID 0000.0001) %MON trcstat_ptracer59_del2       =   1.2955933256427E-07
(PID.TID 0000.0001) %MON trcstat_ptracer60_max        =   1.5388500140368E-04
(PID.TID 0000.0001) %MON trcstat_ptracer60_min        =  -6.1992234955828E-32
(PID.TID 0000.0001) %MON trcstat_ptracer60_mean       =   5.1823801802843E-07
(PID.TID 0000.0001) %MON trcstat_ptracer60_sd         =   7.0213868688798E-06
(PID.TID 0000.0001) %MON trcstat_ptracer60_del2       =   1.2985572778009E-07
(PID.TID 0000.0001) %MON trcstat_ptracer61_max        =   1.5417165813771E-04
(PID.TID 0000.0001) %MON trcstat_ptracer61_min        =   6.6450518426396E-30
(PID.TID 0000.0001) %MON trcstat_ptracer61_mean       =   4.6171743657702E-07
(PID.TID 0000.0001) %MON trcstat_ptracer61_sd         =   6.7828703177560E-06
(PID.TID 0000.0001) %MON trcstat_ptracer61_del2       =   1.2521949731379E-07
(PID.TID 0000.0001) %MON trcstat_ptracer62_max        =   1.5404586515840E-04
(PID.TID 0000.0001) %MON trcstat_ptracer62_min        =   9.9280396976973E-51
(PID.TID 0000.0001) %MON trcstat_ptracer62_mean       =   4.5779035503028E-07
(PID.TID 0000.0001) %MON trcstat_ptracer62_sd         =   6.5613912409400E-06
(PID.TID 0000.0001) %MON trcstat_ptracer62_del2       =   1.3049392068535E-07
(PID.TID 0000.0001) %MON trcstat_ptracer63_max        =   1.5379906112084E-04
(PID.TID 0000.0001) %MON trcstat_ptracer63_min        =   9.5791734093587E-51
(PID.TID 0000.0001) %MON trcstat_ptracer63_mean       =   5.6230540655392E-07
(PID.TID 0000.0001) %MON trcstat_ptracer63_sd         =   7.0105618759952E-06
(PID.TID 0000.0001) %MON trcstat_ptracer63_del2       =   1.2645806473898E-07
(PID.TID 0000.0001) %MON trcstat_ptracer64_max        =   4.6498066789101E-04
(PID.TID 0000.0001) %MON trcstat_ptracer64_min        =  -1.7896198135753E-24
(PID.TID 0000.0001) %MON trcstat_ptracer64_mean       =   2.7348796610125E-06
(PID.TID 0000.0001) %MON trcstat_ptracer64_sd         =   2.2025875202902E-05
(PID.TID 0000.0001) %MON trcstat_ptracer64_del2       =   6.4906423936405E-07
(PID.TID 0000.0001) %MON trcstat_ptracer65_max        =   1.5357789161944E-04
(PID.TID 0000.0001) %MON trcstat_ptracer65_min        =   4.1176637199682E-18
(PID.TID 0000.0001) %MON trcstat_ptracer65_mean       =   4.0242476869067E-07
(PID.TID 0000.0001) %MON trcstat_ptracer65_sd         =   6.4080570251992E-06
(PID.TID 0000.0001) %MON trcstat_ptracer65_del2       =   1.2825002757229E-07
(PID.TID 0000.0001) %MON trcstat_ptracer66_max        =   1.5343979575859E-04
(PID.TID 0000.0001) %MON trcstat_ptracer66_min        =  -5.1234188284283E-19
(PID.TID 0000.0001) %MON trcstat_ptracer66_mean       =   4.0986174213300E-07
(PID.TID 0000.0001) %MON trcstat_ptracer66_sd         =   6.4118640961589E-06
(PID.TID 0000.0001) %MON trcstat_ptracer66_del2       =   1.2808629344141E-07
(PID.TID 0000.0001) %MON trcstat_ptracer67_max        =   1.5355806259142E-04
(PID.TID 0000.0001) %MON trcstat_ptracer67_min        =  -2.6407457510825E-17
(PID.TID 0000.0001) %MON trcstat_ptracer67_mean       =   3.9123193649601E-07
(PID.TID 0000.0001) %MON trcstat_ptracer67_sd         =   6.3751859574159E-06
(PID.TID 0000.0001) %MON trcstat_ptracer67_del2       =   1.2861264787721E-07
(PID.TID 0000.0001) %MON trcstat_ptracer68_max        =   1.5433868705696E-04
(PID.TID 0000.0001) %MON trcstat_ptracer68_min        =  -6.3915720387956E-25
(PID.TID 0000.0001) %MON trcstat_ptracer68_mean       =   3.9282708025761E-07
(PID.TID 0000.0001) %MON trcstat_ptracer68_sd         =   6.4004630787404E-06
(PID.TID 0000.0001) %MON trcstat_ptracer68_del2       =   1.2909853577761E-07
(PID.TID 0000.0001) %MON trcstat_ptracer69_max        =   1.5343979575858E-04
(PID.TID 0000.0001) %MON trcstat_ptracer69_min        =  -5.8636483185960E-19
(PID.TID 0000.0001) %MON trcstat_ptracer69_mean       =   4.0986172114880E-07
(PID.TID 0000.0001) %MON trcstat_ptracer69_sd         =   6.4118640974931E-06
(PID.TID 0000.0001) %MON trcstat_ptracer69_del2       =   1.2808629301204E-07
(PID.TID 0000.0001) %MON trcstat_ptracer70_max        =   1.5355929546641E-04
(PID.TID 0000.0001) %MON trcstat_ptracer70_min        =  -2.6725416286017E-18
(PID.TID 0000.0001) %MON trcstat_ptracer70_mean       =   4.0981172197033E-07
(PID.TID 0000.0001) %MON trcstat_ptracer70_sd         =   6.4117711369601E-06
(PID.TID 0000.0001) %MON trcstat_ptracer70_del2       =   1.2811422825805E-07
(PID.TID 0000.0001) %MON trcstat_ptracer71_max        =   1.5483412970174E-04
(PID.TID 0000.0001) %MON trcstat_ptracer71_min        =   7.8193848315575E-31
(PID.TID 0000.0001) %MON trcstat_ptracer71_mean       =   6.0395652895399E-07
(PID.TID 0000.0001) %MON trcstat_ptracer71_sd         =   7.5547295354702E-06
(PID.TID 0000.0001) %MON trcstat_ptracer71_del2       =   1.4499853399863E-07
(PID.TID 0000.0001) %MON trcstat_ptracer72_max        =   1.5343979575858E-04
(PID.TID 0000.0001) %MON trcstat_ptracer72_min        =   9.9844339795155E-51
(PID.TID 0000.0001) %MON trcstat_ptracer72_mean       =   4.0998191613713E-07
(PID.TID 0000.0001) %MON trcstat_ptracer72_sd         =   6.4136815999395E-06
(PID.TID 0000.0001) %MON trcstat_ptracer72_del2       =   1.2812374942204E-07
(PID.TID 0000.0001) %MON trcstat_ptracer73_max        =   1.9109359495474E-02
(PID.TID 0000.0001) %MON trcstat_ptracer73_min        =  -3.8575671145340E-19
(PID.TID 0000.0001) %MON trcstat_ptracer73_mean       =   6.9654283768983E-04
(PID.TID 0000.0001) %MON trcstat_ptracer73_sd         =   1.8052536893683E-03
(PID.TID 0000.0001) %MON trcstat_ptracer73_del2       =   9.8963840819749E-05
(PID.TID 0000.0001) %MON trcstat_ptracer74_max        =   1.5357789161943E-04
(PID.TID 0000.0001) %MON trcstat_ptracer74_min        =  -1.3361676678101E-18
(PID.TID 0000.0001) %MON trcstat_ptracer74_mean       =   4.0241752843349E-07
(PID.TID 0000.0001) %MON trcstat_ptracer74_sd         =   6.4080573848007E-06
(PID.TID 0000.0001) %MON trcstat_ptracer74_del2       =   1.2824900318780E-07
(PID.TID 0000.0001) %MON trcstat_ptracer75_max        =   1.5372370213329E-04
(PID.TID 0000.0001) %MON trcstat_ptracer75_min        =   4.9771041038005E-37
(PID.TID 0000.0001) %MON trcstat_ptracer75_mean       =   4.3034247113706E-07
(PID.TID 0000.0001) %MON trcstat_ptracer75_sd         =   6.4403549699544E-06
(PID.TID 0000.0001) %MON trcstat_ptracer75_del2       =   1.3132993088382E-07
(PID.TID 0000.0001) %MON trcstat_ptracer76_max        =   1.5367750741913E-04
(PID.TID 0000.0001) %MON trcstat_ptracer76_min        =  -2.4503438609670E-19
(PID.TID 0000.0001) %MON trcstat_ptracer76_mean       =   3.9118643924107E-07
(PID.TID 0000.0001) %MON trcstat_ptracer76_sd         =   6.3750764282420E-06
(PID.TID 0000.0001) %MON trcstat_ptracer76_del2       =   1.2864224824797E-07
(PID.TID 0000.0001) %MON trcstat_ptracer77_max        =   1.5366023838319E-04
(PID.TID 0000.0001) %MON trcstat_ptracer77_min        =   6.7742417930048E-29
(PID.TID 0000.0001) %MON trcstat_ptracer77_mean       =   3.9112291358655E-07
(PID.TID 0000.0001) %MON trcstat_ptracer77_sd         =   6.3743483437600E-06
(PID.TID 0000.0001) %MON trcstat_ptracer77_del2       =   1.2863159083671E-07
(PID.TID 0000.0001) %MON trcstat_ptracer78_max        =   1.5368828417124E-04
(PID.TID 0000.0001) %MON trcstat_ptracer78_min        =  -1.3677530037469E-17
(PID.TID 0000.0001) %MON trcstat_ptracer78_mean       =   3.9132864328154E-07
(PID.TID 0000.0001) %MON trcstat_ptracer78_sd         =   6.3767796846265E-06
(PID.TID 0000.0001) %MON trcstat_ptracer78_del2       =   1.2863951306079E-07
(PID.TID 0000.0001) %MON trcstat_ptracer79_max        =   9.5945134091211E-02
(PID.TID 0000.0001) %MON trcstat_ptracer79_min        =   3.2592199824507E-15
(PID.TID 0000.0001) %MON trcstat_ptracer79_mean       =   6.7252539782664E-03
(PID.TID 0000.0001) %MON trcstat_ptracer79_sd         =   1.0315098409954E-02
(PID.TID 0000.0001) %MON trcstat_ptracer79_del2       =   8.6120232581243E-04
(PID.TID 0000.0001) %MON trcstat_ptracer80_max        =   1.5448243760223E-04
(PID.TID 0000.0001) %MON trcstat_ptracer80_min        =  -1.4829006965677E-23
(PID.TID 0000.0001) %MON trcstat_ptracer80_mean       =   4.1165500903324E-07
(PID.TID 0000.0001) %MON trcstat_ptracer80_sd         =   6.4447507284058E-06
(PID.TID 0000.0001) %MON trcstat_ptracer80_del2       =   1.2875863419900E-07
(PID.TID 0000.0001) %MON trcstat_ptracer81_max        =   1.5369322344800E-04
(PID.TID 0000.0001) %MON trcstat_ptracer81_min        =   8.7279115874049E-51
(PID.TID 0000.0001) %MON trcstat_ptracer81_mean       =   4.3389406601817E-07
(PID.TID 0000.0001) %MON trcstat_ptracer81_sd         =   6.5205435905486E-06
(PID.TID 0000.0001) %MON trcstat_ptracer81_del2       =   1.2564729873695E-07
(PID.TID 0000.0001) %MON trcstat_ptracer82_max        =   1.5499932274819E-04
(PID.TID 0000.0001) %MON trcstat_ptracer82_min        =  -1.4542648889600E-41
(PID.TID 0000.0001) %MON trcstat_ptracer82_mean       =   8.3284749846538E-07
(PID.TID 0000.0001) %MON trcstat_ptracer82_sd         =   8.1775437350504E-06
(PID.TID 0000.0001) %MON trcstat_ptracer82_del2       =   1.5687218985732E-07
(PID.TID 0000.0001) %MON trcstat_ptracer83_max        =   2.1195339951268E-02
(PID.TID 0000.0001) %MON trcstat_ptracer83_min        =   2.1655010584139E-35
(PID.TID 0000.0001) %MON trcstat_ptracer83_mean       =   1.3816872840069E-04
(PID.TID 0000.0001) %MON trcstat_ptracer83_sd         =   8.3331490992747E-04
(PID.TID 0000.0001) %MON trcstat_ptracer83_del2       =   2.0665093565754E-05
(PID.TID 0000.0001) %MON trcstat_ptracer84_max        =   2.1648993991658E-04
(PID.TID 0000.0001) %MON trcstat_ptracer84_min        =  -3.5834620387162E-28
(PID.TID 0000.0001) %MON trcstat_ptracer84_mean       =   9.5468847763576E-07
(PID.TID 0000.0001) %MON trcstat_ptracer84_sd         =   9.9530637906423E-06
(PID.TID 0000.0001) %MON trcstat_ptracer84_del2       =   1.9219889452671E-07
(PID.TID 0000.0001) %MON trcstat_ptracer85_max        =   1.5465642475177E-04
(PID.TID 0000.0001) %MON trcstat_ptracer85_min        =   8.4295656852531E-51
(PID.TID 0000.0001) %MON trcstat_ptracer85_mean       =   4.1308505287124E-07
(PID.TID 0000.0001) %MON trcstat_ptracer85_sd         =   6.4612275267197E-06
(PID.TID 0000.0001) %MON trcstat_ptracer85_del2       =   1.2913952315895E-07
(PID.TID 0000.0001) %MON trcstat_ptracer86_max        =   1.5355806259141E-04
(PID.TID 0000.0001) %MON trcstat_ptracer86_min        =  -2.5756471235449E-17
(PID.TID 0000.0001) %MON trcstat_ptracer86_mean       =   3.9122329216441E-07
(PID.TID 0000.0001) %MON trcstat_ptracer86_sd         =   6.3751350188390E-06
(PID.TID 0000.0001) %MON trcstat_ptracer86_del2       =   1.2861486428552E-07
(PID.TID 0000.0001) %MON trcstat_ptracer87_max        =   1.5379044198987E-04
(PID.TID 0000.0001) %MON trcstat_ptracer87_min        =  -1.8778578204708E-18
(PID.TID 0000.0001) %MON trcstat_ptracer87_mean       =   4.1037525293041E-07
(PID.TID 0000.0001) %MON trcstat_ptracer87_sd         =   6.4192871331262E-06
(PID.TID 0000.0001) %MON trcstat_ptracer87_del2       =   1.2820113123021E-07
(PID.TID 0000.0001) %MON trcstat_ptracer88_max        =   1.5425509267509E-04
(PID.TID 0000.0001) %MON trcstat_ptracer88_min        =  -1.1355362096727E-18
(PID.TID 0000.0001) %MON trcstat_ptracer88_mean       =   4.1153016820411E-07
(PID.TID 0000.0001) %MON trcstat_ptracer88_sd         =   6.4380896953800E-06
(PID.TID 0000.0001) %MON trcstat_ptracer88_del2       =   1.2857704920928E-07
(PID.TID 0000.0001) %MON trcstat_ptracer89_max        =   6.3064225237452E-02
(PID.TID 0000.0001) %MON trcstat_ptracer89_min        =   4.6173380181904E-30
(PID.TID 0000.0001) %MON trcstat_ptracer89_mean       =   3.6410527933995E-03
(PID.TID 0000.0001) %MON trcstat_ptracer89_sd         =   7.9155751782559E-03
(PID.TID 0000.0001) %MON trcstat_ptracer89_del2       =   3.8110148963283E-04
(PID.TID 0000.0001) %MON trcstat_ptracer90_max        =   1.5483988824325E-04
(PID.TID 0000.0001) %MON trcstat_ptracer90_min        =  -1.3589440172057E-18
(PID.TID 0000.0001) %MON trcstat_ptracer90_mean       =   4.0522112164116E-07
(PID.TID 0000.0001) %MON trcstat_ptracer90_sd         =   6.4570989756272E-06
(PID.TID 0000.0001) %MON trcstat_ptracer90_del2       =   1.2925190500670E-07
(PID.TID 0000.0001) %MON trcstat_ptracer91_max        =   2.5930457865013E-04
(PID.TID 0000.0001) %MON trcstat_ptracer91_min        =   2.3609474754092E-24
(PID.TID 0000.0001) %MON trcstat_ptracer91_mean       =   1.0635130803264E-06
(PID.TID 0000.0001) %MON trcstat_ptracer91_sd         =   1.0984817062609E-05
(PID.TID 0000.0001) %MON trcstat_ptracer91_del2       =   2.5275285195759E-07
(PID.TID 0000.0001) %MON trcstat_ptracer92_max        =   3.2717918719556E-04
(PID.TID 0000.0001) %MON trcstat_ptracer92_min        =   8.9658367454128E-43
(PID.TID 0000.0001) %MON trcstat_ptracer92_mean       =   2.0380691430459E-06
(PID.TID 0000.0001) %MON trcstat_ptracer92_sd         =   1.5077803218336E-05
(PID.TID 0000.0001) %MON trcstat_ptracer92_del2       =   2.9357573407724E-07
(PID.TID 0000.0001) %MON trcstat_ptracer93_max        =   7.3966141410782E-03
(PID.TID 0000.0001) %MON trcstat_ptracer93_min        =   3.4056811672147E-33
(PID.TID 0000.0001) %MON trcstat_ptracer93_mean       =   1.1661597786336E-04
(PID.TID 0000.0001) %MON trcstat_ptracer93_sd         =   4.3891918227050E-04
(PID.TID 0000.0001) %MON trcstat_ptracer93_del2       =   2.0747801993947E-05
(PID.TID 0000.0001) %MON trcstat_ptracer94_max        =   1.5355806259141E-04
(PID.TID 0000.0001) %MON trcstat_ptracer94_min        =   1.2411937935858E-28
(PID.TID 0000.0001) %MON trcstat_ptracer94_mean       =   3.9122452856336E-07
(PID.TID 0000.0001) %MON trcstat_ptracer94_sd         =   6.3751350478300E-06
(PID.TID 0000.0001) %MON trcstat_ptracer94_del2       =   1.2861491349389E-07
(PID.TID 0000.0001) %MON trcstat_ptracer95_max        =   1.5354203973062E-04
(PID.TID 0000.0001) %MON trcstat_ptracer95_min        =  -4.2349792754670E-18
(PID.TID 0000.0001) %MON trcstat_ptracer95_mean       =   4.0973862356493E-07
(PID.TID 0000.0001) %MON trcstat_ptracer95_sd         =   6.4110245432426E-06
(PID.TID 0000.0001) %MON trcstat_ptracer95_del2       =   1.2810304266685E-07
(PID.TID 0000.0001) %MON trcstat_ptracer96_max        =   1.5355806259141E-04
(PID.TID 0000.0001) %MON trcstat_ptracer96_min        =  -2.6877434783540E-17
(PID.TID 0000.0001) %MON trcstat_ptracer96_mean       =   3.9122329215978E-07
(PID.TID 0000.0001) %MON trcstat_ptracer96_sd         =   6.3751350188304E-06
(PID.TID 0000.0001) %MON trcstat_ptracer96_del2       =   1.2861486428534E-07
(PID.TID 0000.0001) %MON trcstat_ptracer97_max        =   8.1299978951564E-04
(PID.TID 0000.0001) %MON trcstat_ptracer97_min        =   1.0000000000689E-50
(PID.TID 0000.0001) %MON trcstat_ptracer97_mean       =   1.8581117467433E-06
(PID.TID 0000.0001) %MON trcstat_ptracer97_sd         =   1.6881071792566E-05
(PID.TID 0000.0001) %MON trcstat_ptracer97_del2       =   3.6176118950424E-07
(PID.TID 0000.0001) %MON trcstat_ptracer98_max        =   1.5387901779305E-04
(PID.TID 0000.0001) %MON trcstat_ptracer98_min        =  -1.0142733607214E-23
(PID.TID 0000.0001) %MON trcstat_ptracer98_mean       =   5.1308988020378E-07
(PID.TID 0000.0001) %MON trcstat_ptracer98_sd         =   6.9563897781900E-06
(PID.TID 0000.0001) %MON trcstat_ptracer98_del2       =   1.2865522084805E-07
(PID.TID 0000.0001) %MON trcstat_ptracer99_max        =   1.5368008062206E-04
(PID.TID 0000.0001) %MON trcstat_ptracer99_min        =  -9.8852564284756E-22
(PID.TID 0000.0001) %MON trcstat_ptracer99_mean       =   4.0230710260115E-07
(PID.TID 0000.0001) %MON trcstat_ptracer99_sd         =   6.4072458722351E-06
(PID.TID 0000.0001) %MON trcstat_ptracer99_del2       =   1.2826539212018E-07
(PID.TID 0000.0001) // =======================================================
(PID.TID 0000.0001) // End MONITOR ptracers field statistics
(PID.TID 0000.0001) // =======================================================
 Compute Stats, Diag. #   1386  SIqsw     vol(   0 ): 4.877E+11  Parms: SM      U1      
 Compute Stats, Diag. #     81  oceQsw    vol(   0 ): 4.877E+11  Parms: SM      U1      
 Compute Stats, Diag. #   1280  PAR       vol(   0 ): 2.820E+13  Parms: SM P    MR      
 Compute Stats, Diag. #    162  EXFswnet  vol(   0 ): 4.877E+11  Parms: SM      U1      
 Compute Stats, Diag. #    164  EXFswdn   vol(   0 ): 4.877E+11  Parms: SM      U1      
 Compute Stats, Diag. #     26  THETA     vol(   0 ): 2.820E+13  Parms: SM      MR      
 Compute Stats, Diag. #     29  SALTanom  vol(   0 ): 2.820E+13  Parms: SM      MR      
 Compute Stats, Diag. #   1281  PP        vol(   0 ): 2.820E+13  Parms: SM P    MR      
 Compute Stats, Diag. #   1049  TRAC79    vol(   0 ): 2.820E+13  Parms: SM P    MR      
 Compute Stats, Diag. #     23  ETAN      vol(   0 ): 4.877E+11  Parms: SM      M1      
 Compute Stats, Diag. #    213  TRAC03    vol(   0 ): 2.820E+13  Parms: SM P    MR      
(PID.TID 0000.0001) // =======================================================
(PID.TID 0000.0001) // Begin MONITOR EXF statistics
(PID.TID 0000.0001) // =======================================================
(PID.TID 0000.0001) %MON exf_tsnumber                 =                188389
(PID.TID 0000.0001) %MON exf_time_sec                 =   2.2606680000000E+08
(PID.TID 0000.0001) %MON exf_ustress_max              =   2.8448524968708E-01
(PID.TID 0000.0001) %MON exf_ustress_min              =  -3.2852177518210E-02
(PID.TID 0000.0001) %MON exf_ustress_mean             =   8.0872012340476E-02
(PID.TID 0000.0001) %MON exf_ustress_sd               =   7.8389438775561E-02
(PID.TID 0000.0001) %MON exf_ustress_del2             =   7.9520943138290E-04
(PID.TID 0000.0001) %MON exf_vstress_max              =   1.6898987916400E-01
(PID.TID 0000.0001) %MON exf_vstress_min              =  -2.0113603099062E-01
(PID.TID 0000.0001) %MON exf_vstress_mean             =  -2.1662322909393E-02
(PID.TID 0000.0001) %MON exf_vstress_sd               =   7.9811550563780E-02
(PID.TID 0000.0001) %MON exf_vstress_del2             =   1.5263452143465E-03
(PID.TID 0000.0001) %MON exf_hflux_max                =   6.3494007518511E+01
(PID.TID 0000.0001) %MON exf_hflux_min                =  -1.7710521507295E+02
(PID.TID 0000.0001) %MON exf_hflux_mean               =  -7.8102092734899E+01
(PID.TID 0000.0001) %MON exf_hflux_sd                 =   5.8390611966617E+01
(PID.TID 0000.0001) %MON exf_hflux_del2               =   2.9008678745273E+00
(PID.TID 0000.0001) %MON exf_sflux_max                =   1.1986147898157E-08
(PID.TID 0000.0001) %MON exf_sflux_min                =  -3.0225569416671E-07
(PID.TID 0000.0001) %MON exf_sflux_mean               =  -1.0054638520434E-07
(PID.TID 0000.0001) %MON exf_sflux_sd                 =   7.6113549486866E-08
(PID.TID 0000.0001) %MON exf_sflux_del2               =   1.1911180836979E-09
(PID.TID 0000.0001) %MON exf_uwind_max                =   1.2163354584334E+01
(PID.TID 0000.0001) %MON exf_uwind_min                =  -2.4643674044047E+00
(PID.TID 0000.0001) %MON exf_uwind_mean               =   5.8438896076280E+00
(PID.TID 0000.0001) %MON exf_uwind_sd                 =   3.6286429813768E+00
(PID.TID 0000.0001) %MON exf_uwind_del2               =   3.1109970568116E-02
(PID.TID 0000.0001) %MON exf_vwind_max                =   1.0664458501228E+01
(PID.TID 0000.0001) %MON exf_vwind_min                =  -8.8630900894959E+00
(PID.TID 0000.0001) %MON exf_vwind_mean               =  -1.2838920834977E+00
(PID.TID 0000.0001) %MON exf_vwind_sd                 =   5.5199486685979E+00
(PID.TID 0000.0001) %MON exf_vwind_del2               =   1.2693656825385E-01
(PID.TID 0000.0001) %MON exf_wspeed_max               =   1.3961579102308E+01
(PID.TID 0000.0001) %MON exf_wspeed_min               =   3.8657144204390E+00
(PID.TID 0000.0001) %MON exf_wspeed_mean              =   8.5520983343173E+00
(PID.TID 0000.0001) %MON exf_wspeed_sd                =   2.5095660777572E+00
(PID.TID 0000.0001) %MON exf_wspeed_del2              =   2.3377970584324E-01
(PID.TID 0000.0001) %MON exf_atemp_max                =   2.8016788240671E+02
(PID.TID 0000.0001) %MON exf_atemp_min                =   2.6685426217897E+02
(PID.TID 0000.0001) %MON exf_atemp_mean               =   2.7527470892849E+02
(PID.TID 0000.0001) %MON exf_atemp_sd                 =   2.6137535645270E+00
(PID.TID 0000.0001) %MON exf_atemp_del2               =   5.8655431069672E-02
(PID.TID 0000.0001) %MON exf_aqh_max                  =   6.1276550540628E-03
(PID.TID 0000.0001) %MON exf_aqh_min                  =   2.3865097677218E-03
(PID.TID 0000.0001) %MON exf_aqh_mean                 =   4.3560646326246E-03
(PID.TID 0000.0001) %MON exf_aqh_sd                   =   7.5948613216302E-04
(PID.TID 0000.0001) %MON exf_aqh_del2                 =   8.9494256267043E-05
(PID.TID 0000.0001) %MON exf_lwflux_max               =   8.1751026889163E+01
(PID.TID 0000.0001) %MON exf_lwflux_min               =   6.7626496446582E+00
(PID.TID 0000.0001) %MON exf_lwflux_mean              =   3.9299556879181E+01
(PID.TID 0000.0001) %MON exf_lwflux_sd                =   1.8771175642243E+01
(PID.TID 0000.0001) %MON exf_lwflux_del2              =   1.2615314663007E+00
(PID.TID 0000.0001) %MON exf_precip_max               =   3.0361377083156E-07
(PID.TID 0000.0001) %MON exf_precip_min               =   1.8514937374685E-09
(PID.TID 0000.0001) %MON exf_precip_mean              =   9.6244341432375E-08
(PID.TID 0000.0001) %MON exf_precip_sd                =   7.4869901948769E-08
(PID.TID 0000.0001) %MON exf_precip_del2              =   3.7894187341540E-09
(PID.TID 0000.0001) %MON exf_snowprecip_max           =   0.0000000000000E+00
(PID.TID 0000.0001) %MON exf_snowprecip_min           =   0.0000000000000E+00
(PID.TID 0000.0001) %MON exf_snowprecip_mean          =   0.0000000000000E+00
(PID.TID 0000.0001) %MON exf_snowprecip_sd            =   0.0000000000000E+00
(PID.TID 0000.0001) %MON exf_snowprecip_del2          =   0.0000000000000E+00
(PID.TID 0000.0001) %MON exf_swflux_max               =  -9.0116594309309E+01
(PID.TID 0000.0001) %MON exf_swflux_min               =  -2.0532529254673E+02
(PID.TID 0000.0001) %MON exf_swflux_mean              =  -1.3698730402090E+02
(PID.TID 0000.0001) %MON exf_swflux_sd                =   2.8866115767697E+01
(PID.TID 0000.0001) %MON exf_swflux_del2              =   3.0073073649564E-01
(PID.TID 0000.0001) %MON exf_evap_max                 =   2.5508516099797E-08
(PID.TID 0000.0001) %MON exf_evap_min                 =  -1.3211045489476E-08
(PID.TID 0000.0001) %MON exf_evap_mean                =   4.8787304423257E-09
(PID.TID 0000.0001) %MON exf_evap_sd                  =   8.3422748355218E-09
(PID.TID 0000.0001) %MON exf_evap_del2                =   5.8792603335515E-10
(PID.TID 0000.0001) %MON exf_swdown_max               =   2.4155916770203E+02
(PID.TID 0000.0001) %MON exf_swdown_min               =   1.0601952271683E+02
(PID.TID 0000.0001) %MON exf_swdown_mean              =   1.6116153414223E+02
(PID.TID 0000.0001) %MON exf_swdown_sd                =   3.3960136197291E+01
(PID.TID 0000.0001) %MON exf_swdown_del2              =   3.3896451900784E+00
(PID.TID 0000.0001) %MON exf_lwdown_max               =   3.0799878334372E+02
(PID.TID 0000.0001) %MON exf_lwdown_min               =   2.4297423608660E+02
(PID.TID 0000.0001) %MON exf_lwdown_mean              =   2.7611200888378E+02
(PID.TID 0000.0001) %MON exf_lwdown_sd                =   1.5107790642510E+01
(PID.TID 0000.0001) %MON exf_lwdown_del2              =   6.1551347119762E+00
(PID.TID 0000.0001) %MON exf_apressure_max            =   0.0000000000000E+00
(PID.TID 0000.0001) %MON exf_apressure_min            =   0.0000000000000E+00
(PID.TID 0000.0001) %MON exf_apressure_mean           =   0.0000000000000E+00
(PID.TID 0000.0001) %MON exf_apressure_sd             =   0.0000000000000E+00
(PID.TID 0000.0001) %MON exf_apressure_del2           =   0.0000000000000E+00
(PID.TID 0000.0001) %MON exf_runoff_max               =   7.4975011851692E-08
(PID.TID 0000.0001) %MON exf_runoff_min               =   0.0000000000000E+00
(PID.TID 0000.0001) %MON exf_runoff_mean              =   9.1807742142917E-09
(PID.TID 0000.0001) %MON exf_runoff_sd                =   1.9697588363459E-08
(PID.TID 0000.0001) %MON exf_runoff_del2              =   2.8708460564743E-10
(PID.TID 0000.0001) %MON exf_climsss_max              =   3.4374299004017E+01
(PID.TID 0000.0001) %MON exf_climsss_min              =   2.9702826857686E+00
(PID.TID 0000.0001) %MON exf_climsss_mean             =   1.3184858323379E+01
(PID.TID 0000.0001) %MON exf_climsss_sd               =   1.0358457181776E+01
(PID.TID 0000.0001) %MON exf_climsss_del2             =   4.9106981087627E-02
(PID.TID 0000.0001) // =======================================================
(PID.TID 0000.0001) // End MONITOR EXF statistics
(PID.TID 0000.0001) // =======================================================
 cg2d: Sum(rhs),rhsMax =  -6.11432192107549E+02  2.79192687724533E-01
(PID.TID 0000.0001)                    cg2d_init_res =    1.55169642154049E-01
(PID.TID 0000.0001)                       cg2d_iters =    20
(PID.TID 0000.0001)                         cg2d_res =    5.54741723317526E-06
 tmptotP   19424738292906.4     
 tmptotN   181339597954299.     
 tmptotFe   33450834254.5365     
 tmptotSi   480211051136348.     
 tmptotP   19424738292906.5     
 tmptotN   181339597954299.     
 tmptotFe   33450897235.0023     
 tmptotSi   480211051136350.     
 tmptotP   19424738292906.5     
 tmptotN   181339597954299.     
 tmptotFe   33450897235.0023     
 tmptotSi   480211051136350.     
 tmptotP   19424738292906.4     
 tmptotN   181339597954299.     
 tmptotFe   33450922618.0098     
 tmptotSi   480211051136352.     
 tmptotP   19424738292906.4     
 tmptotN   181339597954299.     
 tmptotFe   33450922618.0098     
 tmptotSi   480211051136352.     
 tmptotP   19424751591855.0     
 tmptotN   181339810737490.     
 tmptotFe   33450957698.8574     
 tmptotSi   480212803893077.     
 tmptotP   19424751591855.0     
 tmptotN   181339810737490.     
 tmptotFe   33450957698.8574     
 tmptotSi   480212803893077.     
 tmptotP   19424751591855.2     
 tmptotN   181339810737491.     
 tmptotFe   33450967562.2636     
 tmptotSi   480212803893075.     
(PID.TID 0000.0001) // =======================================================
(PID.TID 0000.0001) // Begin MONITOR dynamic field statistics
(PID.TID 0000.0001) // =======================================================
(PID.TID 0000.0001) %MON time_tsnumber                =                188390
(PID.TID 0000.0001) %MON time_secondsf                =   2.2606800000000E+08
(PID.TID 0000.0001) %MON dynstat_eta_max              =   6.6208042764083E-01
(PID.TID 0000.0001) %MON dynstat_eta_min              =   0.0000000000000E+00
(PID.TID 0000.0001) %MON dynstat_eta_mean             =   3.6390803639410E-01
(PID.TID 0000.0001) %MON dynstat_eta_sd               =   1.6143332611935E-01
(PID.TID 0000.0001) %MON dynstat_eta_del2             =   7.0322747312193E-03
(PID.TID 0000.0001) %MON dynstat_uvel_max             =   3.9791077819019E-01
(PID.TID 0000.0001) %MON dynstat_uvel_min             =  -3.3801898465088E-01
(PID.TID 0000.0001) %MON dynstat_uvel_mean            =   6.9110843967445E-03
(PID.TID 0000.0001) %MON dynstat_uvel_sd              =   6.1956570232159E-02
(PID.TID 0000.0001) %MON dynstat_uvel_del2            =   1.8085032107002E-02
(PID.TID 0000.0001) %MON dynstat_vvel_max             =   2.6105851791742E-01
(PID.TID 0000.0001) %MON dynstat_vvel_min             =  -4.4942347787401E-01
(PID.TID 0000.0001) %MON dynstat_vvel_mean            =   2.3214623977764E-03
(PID.TID 0000.0001) %MON dynstat_vvel_sd              =   6.4172026095421E-02
(PID.TID 0000.0001) %MON dynstat_vvel_del2            =   1.9671929431778E-02
(PID.TID 0000.0001) %MON dynstat_wvel_max             =   4.9714012181980E-04
(PID.TID 0000.0001) %MON dynstat_wvel_min             =  -5.0479891737172E-04
(PID.TID 0000.0001) %MON dynstat_wvel_mean            =  -2.5773856111576E-06
(PID.TID 0000.0001) %MON dynstat_wvel_sd              =   7.4540039383545E-05
(PID.TID 0000.0001) %MON dynstat_wvel_del2            =   3.0261962380063E-05
(PID.TID 0000.0001) %MON dynstat_theta_max            =   7.9701486048296E+00
(PID.TID 0000.0001) %MON dynstat_theta_min            =  -1.6138165871719E+00
(PID.TID 0000.0001) %MON dynstat_theta_mean           =   3.8279906190286E+00
(PID.TID 0000.0001) %MON dynstat_theta_sd             =   2.2085055339003E+00
(PID.TID 0000.0001) %MON dynstat_theta_del2           =   1.1598769673150E-01
(PID.TID 0000.0001) %MON dynstat_salt_max             =   3.4929515588479E+01
(PID.TID 0000.0001) %MON dynstat_salt_min             =   5.6522339583033E+00
(PID.TID 0000.0001) %MON dynstat_salt_mean            =   1.5735459125695E+01
(PID.TID 0000.0001) %MON dynstat_salt_sd              =   1.2130084772738E+01
(PID.TID 0000.0001) %MON dynstat_salt_del2            =   5.1611317849013E-02
(PID.TID 0000.0001) %MON extforcing_qnet_max          =   2.3912990067990E+02
(PID.TID 0000.0001) %MON extforcing_qnet_min          =  -8.6182415005158E+02
(PID.TID 0000.0001) %MON extforcing_qnet_mean         =  -5.8793254816843E+01
(PID.TID 0000.0001) %MON extforcing_qnet_sd           =   8.3592993791157E+01
(PID.TID 0000.0001) %MON extforcing_qnet_del2         =   1.4895072290322E+01
(PID.TID 0000.0001) %MON extforcing_qsw_max           =   0.0000000000000E+00
(PID.TID 0000.0001) %MON extforcing_qsw_min           =  -2.0532529254673E+02
(PID.TID 0000.0001) %MON extforcing_qsw_mean          =  -1.1222937567268E+02
(PID.TID 0000.0001) %MON extforcing_qsw_sd            =   6.1763157401290E+01
(PID.TID 0000.0001) %MON extforcing_qsw_del2          =   2.3900302529549E+00
(PID.TID 0000.0001) %MON extforcing_empmr_max         =   2.3254796522139E-03
(PID.TID 0000.0001) %MON extforcing_empmr_min         =  -1.0160752365170E-03
(PID.TID 0000.0001) %MON extforcing_empmr_mean        =  -1.0158175850620E-04
(PID.TID 0000.0001) %MON extforcing_empmr_sd          =   1.9705117571845E-04
(PID.TID 0000.0001) %MON extforcing_empmr_del2        =   4.1914657092497E-05
(PID.TID 0000.0001) %MON advcfl_uvel_max              =   2.3083644216647E-02
(PID.TID 0000.0001) %MON advcfl_vvel_max              =   3.3012731825927E-02
(PID.TID 0000.0001) %MON advcfl_wvel_max              =   5.9656814618376E-02
(PID.TID 0000.0001) %MON advcfl_W_hf_max              =   5.9656814618376E-02
(PID.TID 0000.0001) %MON pe_b_mean                    =   1.3445215379051E-02
(PID.TID 0000.0001) %MON ke_max                       =   1.0892455872033E-01
(PID.TID 0000.0001) %MON ke_mean                      =   3.2351815173279E-03
(PID.TID 0000.0001) %MON ke_vol                       =   2.8199008699639E+13
(PID.TID 0000.0001) %MON vort_r_min                   =  -3.6642084272739E-05
(PID.TID 0000.0001) %MON vort_r_max                   =   3.3043986920435E-05
(PID.TID 0000.0001) %MON vort_a_mean                  =   1.2397552884926E-04
(PID.TID 0000.0001) %MON vort_a_sd                    =   6.2870502736137E-06
(PID.TID 0000.0001) %MON vort_p_mean                  =   1.7325641004044E-04
(PID.TID 0000.0001) %MON vort_p_sd                    =   1.0960240558265E-04
(PID.TID 0000.0001) %MON surfExpan_theta_mean         =  -5.1012692830097E-07
(PID.TID 0000.0001) %MON surfExpan_salt_mean          =   1.4220349882953E-06
(PID.TID 0000.0001) // =======================================================
(PID.TID 0000.0001) // End MONITOR dynamic field statistics
(PID.TID 0000.0001) // =======================================================
(PID.TID 0000.0001) // =======================================================
(PID.TID 0000.0001) // Begin MONITOR SEAICE statistics
(PID.TID 0000.0001) // =======================================================
(PID.TID 0000.0001) %MON seaice_tsnumber              =                188390
(PID.TID 0000.0001) %MON seaice_time_sec              =   2.2606800000000E+08
(PID.TID 0000.0001) %MON seaice_area_max              =   1.0000000000000E+00
(PID.TID 0000.0001) %MON seaice_area_min              =   0.0000000000000E+00
(PID.TID 0000.0001) %MON seaice_area_mean             =   2.2085504869381E-01
(PID.TID 0000.0001) %MON seaice_area_sd               =   3.8251541374022E-01
(PID.TID 0000.0001) %MON seaice_area_del2             =   1.9250188560464E-02
(PID.TID 0000.0001) %MON seaice_heff_max              =   1.0116952657384E+00
(PID.TID 0000.0001) %MON seaice_heff_min              =   0.0000000000000E+00
(PID.TID 0000.0001) %MON seaice_heff_mean             =   1.2224796425920E-01
(PID.TID 0000.0001) %MON seaice_heff_sd               =   2.4130342532907E-01
(PID.TID 0000.0001) %MON seaice_heff_del2             =   1.0436848561808E-02
(PID.TID 0000.0001) %MON seaice_hsnow_max             =   2.7591571811927E-01
(PID.TID 0000.0001) %MON seaice_hsnow_min             =   0.0000000000000E+00
(PID.TID 0000.0001) %MON seaice_hsnow_mean            =   3.0074026630694E-02
(PID.TID 0000.0001) %MON seaice_hsnow_sd              =   6.3659795975181E-02
(PID.TID 0000.0001) %MON seaice_hsnow_del2            =   1.8748420379996E-03
(PID.TID 0000.0001) // =======================================================
(PID.TID 0000.0001) // End MONITOR SEAICE statistics
(PID.TID 0000.0001) // =======================================================
(PID.TID 0000.0001) // =======================================================
(PID.TID 0000.0001) // Begin MONITOR ptracer field statistics
(PID.TID 0000.0001) // =======================================================
(PID.TID 0000.0001) %MON trcstat_ptracer01_max        =   4.3206107739625E+00
(PID.TID 0000.0001) %MON trcstat_ptracer01_min        =   3.8001850929573E-02
(PID.TID 0000.0001) %MON trcstat_ptracer01_mean       =   5.8695912510882E-01
(PID.TID 0000.0001) %MON trcstat_ptracer01_sd         =   5.1391066839365E-01
(PID.TID 0000.0001) %MON trcstat_ptracer01_del2       =   1.3842160604127E-02
(PID.TID 0000.0001) %MON trcstat_ptracer02_max        =   4.4160523792263E+01
(PID.TID 0000.0001) %MON trcstat_ptracer02_min        =   1.4930485376319E-02
(PID.TID 0000.0001) %MON trcstat_ptracer02_mean       =   4.6207676781377E+00
(PID.TID 0000.0001) %MON trcstat_ptracer02_sd         =   6.6643489823120E+00
(PID.TID 0000.0001) %MON trcstat_ptracer02_del2       =   2.0293067769367E-01
(PID.TID 0000.0001) %MON trcstat_ptracer03_max        =   1.3876604127331E-03
(PID.TID 0000.0001) %MON trcstat_ptracer03_min        =   5.8902087843960E-04
(PID.TID 0000.0001) %MON trcstat_ptracer03_mean       =   1.0857131128875E-03
(PID.TID 0000.0001) %MON trcstat_ptracer03_sd         =   1.4467157706026E-04
(PID.TID 0000.0001) %MON trcstat_ptracer03_del2       =   9.1877878165223E-06
(PID.TID 0000.0001) %MON trcstat_ptracer04_max        =   1.5669603419285E+02
(PID.TID 0000.0001) %MON trcstat_ptracer04_min        =   6.3040918173544E-02
(PID.TID 0000.0001) %MON trcstat_ptracer04_mean       =   1.4507267892254E+01
(PID.TID 0000.0001) %MON trcstat_ptracer04_sd         =   1.6977796430299E+01
(PID.TID 0000.0001) %MON trcstat_ptracer04_del2       =   3.9915733541586E-01
(PID.TID 0000.0001) %MON trcstat_ptracer05_max        =   2.8331674625186E-01
(PID.TID 0000.0001) %MON trcstat_ptracer05_min        =   8.3383750532730E-08
(PID.TID 0000.0001) %MON trcstat_ptracer05_mean       =   5.9541212294832E-02
(PID.TID 0000.0001) %MON trcstat_ptracer05_sd         =   5.7218222279511E-02
(PID.TID 0000.0001) %MON trcstat_ptracer05_del2       =   2.5844807566864E-03
(PID.TID 0000.0001) %MON trcstat_ptracer06_max        =   4.5330679400298E+00
(PID.TID 0000.0001) %MON trcstat_ptracer06_min        =   1.3341400085237E-06
(PID.TID 0000.0001) %MON trcstat_ptracer06_mean       =   9.5265939671731E-01
(PID.TID 0000.0001) %MON trcstat_ptracer06_sd         =   9.1549155647217E-01
(PID.TID 0000.0001) %MON trcstat_ptracer06_del2       =   4.1351692106982E-02
(PID.TID 0000.0001) %MON trcstat_ptracer07_max        =   2.8331674625186E-04
(PID.TID 0000.0001) %MON trcstat_ptracer07_min        =   8.3383750532732E-11
(PID.TID 0000.0001) %MON trcstat_ptracer07_mean       =   5.9541212289674E-05
(PID.TID 0000.0001) %MON trcstat_ptracer07_sd         =   5.7218222341726E-05
(PID.TID 0000.0001) %MON trcstat_ptracer07_del2       =   2.5844807726326E-06
(PID.TID 0000.0001) %MON trcstat_ptracer08_max        =   7.1914622677989E-03
(PID.TID 0000.0001) %MON trcstat_ptracer08_min        =   6.8672057632497E-33
(PID.TID 0000.0001) %MON trcstat_ptracer08_mean       =   5.1894536531565E-04
(PID.TID 0000.0001) %MON trcstat_ptracer08_sd         =   1.1969372485262E-03
(PID.TID 0000.0001) %MON trcstat_ptracer08_del2       =   3.3628488137328E-05
(PID.TID 0000.0001) %MON trcstat_ptracer09_max        =   1.1506339628478E-01
(PID.TID 0000.0001) %MON trcstat_ptracer09_min        =   1.0987529221199E-31
(PID.TID 0000.0001) %MON trcstat_ptracer09_mean       =   8.3031258450503E-03
(PID.TID 0000.0001) %MON trcstat_ptracer09_sd         =   1.9150995976419E-02
(PID.TID 0000.0001) %MON trcstat_ptracer09_del2       =   5.3805581019725E-04
(PID.TID 0000.0001) %MON trcstat_ptracer10_max        =   7.1914623706749E-06
(PID.TID 0000.0001) %MON trcstat_ptracer10_min        =   6.8672057632782E-36
(PID.TID 0000.0001) %MON trcstat_ptracer10_mean       =   5.1894536636437E-07
(PID.TID 0000.0001) %MON trcstat_ptracer10_sd         =   1.1969372508991E-06
(PID.TID 0000.0001) %MON trcstat_ptracer10_del2       =   3.3628488232760E-08
(PID.TID 0000.0001) %MON trcstat_ptracer11_max        =   8.8753986900349E-03
(PID.TID 0000.0001) %MON trcstat_ptracer11_min        =   1.9334964961120E-32
(PID.TID 0000.0001) %MON trcstat_ptracer11_mean       =   3.6921374598472E-04
(PID.TID 0000.0001) %MON trcstat_ptracer11_sd         =   1.3649693824631E-03
(PID.TID 0000.0001) %MON trcstat_ptracer11_del2       =   3.7941256786948E-05
(PID.TID 0000.0001) %MON trcstat_ptracer12_max        =   8.4315330845850E-02
(PID.TID 0000.0001) %MON trcstat_ptracer12_min        =   8.8937577181728E-23
(PID.TID 0000.0001) %MON trcstat_ptracer12_mean       =   1.7692771381147E-03
(PID.TID 0000.0001) %MON trcstat_ptracer12_sd         =   7.4784726055745E-03
(PID.TID 0000.0001) %MON trcstat_ptracer12_del2       =   1.9293133737124E-04
(PID.TID 0000.0001) %MON trcstat_ptracer13_max        =   1.3490452935336E+00
(PID.TID 0000.0001) %MON trcstat_ptracer13_min        =   1.4230012349077E-21
(PID.TID 0000.0001) %MON trcstat_ptracer13_mean       =   2.8308434209835E-02
(PID.TID 0000.0001) %MON trcstat_ptracer13_sd         =   1.1965556168919E-01
(PID.TID 0000.0001) %MON trcstat_ptracer13_del2       =   3.0869013979399E-03
(PID.TID 0000.0001) %MON trcstat_ptracer14_max        =   8.4315330897965E-05
(PID.TID 0000.0001) %MON trcstat_ptracer14_min        =   8.8937577181713E-26
(PID.TID 0000.0001) %MON trcstat_ptracer14_mean       =   1.7692771394446E-06
(PID.TID 0000.0001) %MON trcstat_ptracer14_sd         =   7.4784726091051E-06
(PID.TID 0000.0001) %MON trcstat_ptracer14_del2       =   1.9293133742935E-07
(PID.TID 0000.0001) %MON trcstat_ptracer15_max        =   9.5013011332119E-01
(PID.TID 0000.0001) %MON trcstat_ptracer15_min        =   9.4425035295197E-22
(PID.TID 0000.0001) %MON trcstat_ptracer15_mean       =   1.8815133664167E-02
(PID.TID 0000.0001) %MON trcstat_ptracer15_sd         =   9.1916249390821E-02
(PID.TID 0000.0001) %MON trcstat_ptracer15_del2       =   2.6723652529772E-03
(PID.TID 0000.0001) %MON trcstat_ptracer16_max        =   1.0026360974944E+00
(PID.TID 0000.0001) %MON trcstat_ptracer16_min        =   3.3816034491109E-09
(PID.TID 0000.0001) %MON trcstat_ptracer16_mean       =   2.0811125643552E-02
(PID.TID 0000.0001) %MON trcstat_ptracer16_sd         =   4.8916287741326E-02
(PID.TID 0000.0001) %MON trcstat_ptracer16_del2       =   3.4967212274290E-03
(PID.TID 0000.0001) %MON trcstat_ptracer17_max        =   1.6042177559910E+01
(PID.TID 0000.0001) %MON trcstat_ptracer17_min        =   5.4105655185774E-08
(PID.TID 0000.0001) %MON trcstat_ptracer17_mean       =   3.3297801029683E-01
(PID.TID 0000.0001) %MON trcstat_ptracer17_sd         =   7.8266060386121E-01
(PID.TID 0000.0001) %MON trcstat_ptracer17_del2       =   5.5947539638865E-02
(PID.TID 0000.0001) %MON trcstat_ptracer18_max        =   1.0026360974944E-03
(PID.TID 0000.0001) %MON trcstat_ptracer18_min        =   3.3816034491109E-12
(PID.TID 0000.0001) %MON trcstat_ptracer18_mean       =   2.0811125647685E-05
(PID.TID 0000.0001) %MON trcstat_ptracer18_sd         =   4.8916287735755E-05
(PID.TID 0000.0001) %MON trcstat_ptracer18_del2       =   3.4967212287755E-06
(PID.TID 0000.0001) %MON trcstat_ptracer19_max        =   3.0538380782182E+02
(PID.TID 0000.0001) %MON trcstat_ptracer19_min        =   9.1925421625677E-08
(PID.TID 0000.0001) %MON trcstat_ptracer19_mean       =   2.2602883614021E+00
(PID.TID 0000.0001) %MON trcstat_ptracer19_sd         =   1.2393390598541E+01
(PID.TID 0000.0001) %MON trcstat_ptracer19_del2       =   3.9045602177390E-01
(PID.TID 0000.0001) %MON trcstat_ptracer20_max        =   1.9609153129237E+00
(PID.TID 0000.0001) %MON trcstat_ptracer20_min        =   2.2680379307676E-07
(PID.TID 0000.0001) %MON trcstat_ptracer20_mean       =   1.7371969473268E-02
(PID.TID 0000.0001) %MON trcstat_ptracer20_sd         =   8.2111147336868E-02
(PID.TID 0000.0001) %MON trcstat_ptracer20_del2       =   2.9081234844609E-03
(PID.TID 0000.0001) %MON trcstat_ptracer21_max        =   2.3335987187967E+00
(PID.TID 0000.0001) %MON trcstat_ptracer21_min        =   3.0178476465950E-05
(PID.TID 0000.0001) %MON trcstat_ptracer21_mean       =   1.6310449663443E-01
(PID.TID 0000.0001) %MON trcstat_ptracer21_sd         =   1.9126392630126E-01
(PID.TID 0000.0001) %MON trcstat_ptracer21_del2       =   1.0655410868745E-02
(PID.TID 0000.0001) %MON trcstat_ptracer22_max        =   1.5369100168085E-04
(PID.TID 0000.0001) %MON trcstat_ptracer22_min        =  -2.1068568887938E-19
(PID.TID 0000.0001) %MON trcstat_ptracer22_mean       =   4.1021071740468E-07
(PID.TID 0000.0001) %MON trcstat_ptracer22_sd         =   6.4180204162856E-06
(PID.TID 0000.0001) %MON trcstat_ptracer22_del2       =   1.2822942399870E-07
(PID.TID 0000.0001) %MON trcstat_ptracer23_max        =   5.2384570027234E-04
(PID.TID 0000.0001) %MON trcstat_ptracer23_min        =  -2.2601834208468E-24
(PID.TID 0000.0001) %MON trcstat_ptracer23_mean       =   8.2783956583421E-06
(PID.TID 0000.0001) %MON trcstat_ptracer23_sd         =   4.1511224466046E-05
(PID.TID 0000.0001) %MON trcstat_ptracer23_del2       =   9.8218222123156E-07
(PID.TID 0000.0001) %MON trcstat_ptracer24_max        =   1.5369100168089E-04
(PID.TID 0000.0001) %MON trcstat_ptracer24_min        =   5.7062010634594E-51
(PID.TID 0000.0001) %MON trcstat_ptracer24_mean       =   4.1034326320590E-07
(PID.TID 0000.0001) %MON trcstat_ptracer24_sd         =   6.4180119485959E-06
(PID.TID 0000.0001) %MON trcstat_ptracer24_del2       =   1.2824045998227E-07
(PID.TID 0000.0001) %MON trcstat_ptracer25_max        =   1.5449168324130E-04
(PID.TID 0000.0001) %MON trcstat_ptracer25_min        =   8.0679331846282E-34
(PID.TID 0000.0001) %MON trcstat_ptracer25_mean       =   3.2150243544787E-06
(PID.TID 0000.0001) %MON trcstat_ptracer25_sd         =   1.3133273630037E-05
(PID.TID 0000.0001) %MON trcstat_ptracer25_del2       =   7.3799926999406E-07
(PID.TID 0000.0001) %MON trcstat_ptracer26_max        =   1.5458300315833E-04
(PID.TID 0000.0001) %MON trcstat_ptracer26_min        =  -2.6872549196560E-17
(PID.TID 0000.0001) %MON trcstat_ptracer26_mean       =   3.9380694624729E-07
(PID.TID 0000.0001) %MON trcstat_ptracer26_sd         =   6.4162414992973E-06
(PID.TID 0000.0001) %MON trcstat_ptracer26_del2       =   1.2930878727420E-07
(PID.TID 0000.0001) %MON trcstat_ptracer27_max        =   9.6316493336638E-03
(PID.TID 0000.0001) %MON trcstat_ptracer27_min        =   1.2880839640692E-19
(PID.TID 0000.0001) %MON trcstat_ptracer27_mean       =   2.5581675905211E-04
(PID.TID 0000.0001) %MON trcstat_ptracer27_sd         =   6.7986041471034E-04
(PID.TID 0000.0001) %MON trcstat_ptracer27_del2       =   4.2735715370663E-05
(PID.TID 0000.0001) %MON trcstat_ptracer28_max        =   9.2280101851543E-02
(PID.TID 0000.0001) %MON trcstat_ptracer28_min        =   6.7039063042095E-24
(PID.TID 0000.0001) %MON trcstat_ptracer28_mean       =   1.7097808750007E-03
(PID.TID 0000.0001) %MON trcstat_ptracer28_sd         =   5.9343248371674E-03
(PID.TID 0000.0001) %MON trcstat_ptracer28_del2       =   3.0793663522482E-04
(PID.TID 0000.0001) %MON trcstat_ptracer29_max        =   1.0584613639708E-03
(PID.TID 0000.0001) %MON trcstat_ptracer29_min        =   9.9999999999874E-51
(PID.TID 0000.0001) %MON trcstat_ptracer29_mean       =   3.3631395852880E-06
(PID.TID 0000.0001) %MON trcstat_ptracer29_sd         =   2.4896295069079E-05
(PID.TID 0000.0001) %MON trcstat_ptracer29_del2       =   4.7208138137117E-07
(PID.TID 0000.0001) %MON trcstat_ptracer30_max        =   1.4186057205150E-02
(PID.TID 0000.0001) %MON trcstat_ptracer30_min        =   1.2258476811226E-29
(PID.TID 0000.0001) %MON trcstat_ptracer30_mean       =   1.8297565690837E-04
(PID.TID 0000.0001) %MON trcstat_ptracer30_sd         =   9.3950688630894E-04
(PID.TID 0000.0001) %MON trcstat_ptracer30_del2       =   3.4914359266776E-05
(PID.TID 0000.0001) %MON trcstat_ptracer31_max        =   1.5504002266859E-04
(PID.TID 0000.0001) %MON trcstat_ptracer31_min        =   1.2576755526215E-14
(PID.TID 0000.0001) %MON trcstat_ptracer31_mean       =   4.0778059395666E-07
(PID.TID 0000.0001) %MON trcstat_ptracer31_sd         =   6.4693756056966E-06
(PID.TID 0000.0001) %MON trcstat_ptracer31_del2       =   1.2944473118788E-07
(PID.TID 0000.0001) %MON trcstat_ptracer32_max        =   1.5382918965543E-04
(PID.TID 0000.0001) %MON trcstat_ptracer32_min        =  -5.4490588694353E-19
(PID.TID 0000.0001) %MON trcstat_ptracer32_mean       =   4.0280345827668E-07
(PID.TID 0000.0001) %MON trcstat_ptracer32_sd         =   6.4143239486693E-06
(PID.TID 0000.0001) %MON trcstat_ptracer32_del2       =   1.2838552704496E-07
(PID.TID 0000.0001) %MON trcstat_ptracer33_max        =   1.5368975959757E-04
(PID.TID 0000.0001) %MON trcstat_ptracer33_min        =  -2.0620699372422E-21
(PID.TID 0000.0001) %MON trcstat_ptracer33_mean       =   3.9170495259363E-07
(PID.TID 0000.0001) %MON trcstat_ptracer33_sd         =   6.3816299039260E-06
(PID.TID 0000.0001) %MON trcstat_ptracer33_del2       =   1.2869450247981E-07
(PID.TID 0000.0001) %MON trcstat_ptracer34_max        =   1.5375367626167E-04
(PID.TID 0000.0001) %MON trcstat_ptracer34_min        =   5.6881279638260E-51
(PID.TID 0000.0001) %MON trcstat_ptracer34_mean       =   4.1024473863099E-07
(PID.TID 0000.0001) %MON trcstat_ptracer34_sd         =   6.4184665819244E-06
(PID.TID 0000.0001) %MON trcstat_ptracer34_del2       =   1.2820615715942E-07
(PID.TID 0000.0001) %MON trcstat_ptracer35_max        =   1.5421824046926E-04
(PID.TID 0000.0001) %MON trcstat_ptracer35_min        =  -2.5987688419125E-17
(PID.TID 0000.0001) %MON trcstat_ptracer35_mean       =   3.9338998571847E-07
(PID.TID 0000.0001) %MON trcstat_ptracer35_sd         =   6.4070814209053E-06
(PID.TID 0000.0001) %MON trcstat_ptracer35_del2       =   1.2914345883852E-07
(PID.TID 0000.0001) %MON trcstat_ptracer36_max        =   1.5367372810917E-04
(PID.TID 0000.0001) %MON trcstat_ptracer36_min        =  -5.8860784472533E-19
(PID.TID 0000.0001) %MON trcstat_ptracer36_mean       =   4.1009518896147E-07
(PID.TID 0000.0001) %MON trcstat_ptracer36_sd         =   6.4171452394618E-06
(PID.TID 0000.0001) %MON trcstat_ptracer36_del2       =   1.2821980532103E-07
(PID.TID 0000.0001) %MON trcstat_ptracer37_max        =   1.5491738097235E-04
(PID.TID 0000.0001) %MON trcstat_ptracer37_min        =  -3.8816315791555E-36
(PID.TID 0000.0001) %MON trcstat_ptracer37_mean       =   4.1686601715094E-07
(PID.TID 0000.0001) %MON trcstat_ptracer37_sd         =   6.4741295605934E-06
(PID.TID 0000.0001) %MON trcstat_ptracer37_del2       =   1.2941652033519E-07
(PID.TID 0000.0001) %MON trcstat_ptracer38_max        =   1.5376356386774E-04
(PID.TID 0000.0001) %MON trcstat_ptracer38_min        =   9.8830529334187E-51
(PID.TID 0000.0001) %MON trcstat_ptracer38_mean       =   4.6393278832439E-07
(PID.TID 0000.0001) %MON trcstat_ptracer38_sd         =   6.5802691760943E-06
(PID.TID 0000.0001) %MON trcstat_ptracer38_del2       =   1.3013238119699E-07
(PID.TID 0000.0001) %MON trcstat_ptracer39_max        =   2.8278885127293E-03
(PID.TID 0000.0001) %MON trcstat_ptracer39_min        =   7.4217719621424E-33
(PID.TID 0000.0001) %MON trcstat_ptracer39_mean       =   1.9587418998593E-05
(PID.TID 0000.0001) %MON trcstat_ptracer39_sd         =   1.3487658196378E-04
(PID.TID 0000.0001) %MON trcstat_ptracer39_del2       =   3.5099393097396E-06
(PID.TID 0000.0001) %MON trcstat_ptracer40_max        =   1.5367372810918E-04
(PID.TID 0000.0001) %MON trcstat_ptracer40_min        =  -7.0886205306079E-19
(PID.TID 0000.0001) %MON trcstat_ptracer40_mean       =   4.1009518726801E-07
(PID.TID 0000.0001) %MON trcstat_ptracer40_sd         =   6.4171452395725E-06
(PID.TID 0000.0001) %MON trcstat_ptracer40_del2       =   1.2821980528964E-07
(PID.TID 0000.0001) %MON trcstat_ptracer41_max        =   1.5357138129122E-04
(PID.TID 0000.0001) %MON trcstat_ptracer41_min        =  -4.8650340804781E-18
(PID.TID 0000.0001) %MON trcstat_ptracer41_mean       =   4.1031152032233E-07
(PID.TID 0000.0001) %MON trcstat_ptracer41_sd         =   6.4182527512917E-06
(PID.TID 0000.0001) %MON trcstat_ptracer41_del2       =   1.2818037633546E-07
(PID.TID 0000.0001) %MON trcstat_ptracer42_max        =   1.5428761213156E-04
(PID.TID 0000.0001) %MON trcstat_ptracer42_min        =   7.4365074851998E-17
(PID.TID 0000.0001) %MON trcstat_ptracer42_mean       =   3.9426673004624E-07
(PID.TID 0000.0001) %MON trcstat_ptracer42_sd         =   6.4096079462276E-06
(PID.TID 0000.0001) %MON trcstat_ptracer42_del2       =   1.2937396140879E-07
(PID.TID 0000.0001) %MON trcstat_ptracer43_max        =   1.0584612967070E-03
(PID.TID 0000.0001) %MON trcstat_ptracer43_min        =   5.4239266289173E-14
(PID.TID 0000.0001) %MON trcstat_ptracer43_mean       =   2.5193064124685E-05
(PID.TID 0000.0001) %MON trcstat_ptracer43_sd         =   8.8117091305058E-05
(PID.TID 0000.0001) %MON trcstat_ptracer43_del2       =   4.6412615151512E-06
(PID.TID 0000.0001) %MON trcstat_ptracer44_max        =   1.5367372810912E-04
(PID.TID 0000.0001) %MON trcstat_ptracer44_min        =  -1.3558520158724E-31
(PID.TID 0000.0001) %MON trcstat_ptracer44_mean       =   4.1011435428502E-07
(PID.TID 0000.0001) %MON trcstat_ptracer44_sd         =   6.4171440162662E-06
(PID.TID 0000.0001) %MON trcstat_ptracer44_del2       =   1.2822093111358E-07
(PID.TID 0000.0001) %MON trcstat_ptracer45_max        =   1.5442554013725E-04
(PID.TID 0000.0001) %MON trcstat_ptracer45_min        =  -5.3495567655792E-44
(PID.TID 0000.0001) %MON trcstat_ptracer45_mean       =   6.6290196929716E-07
(PID.TID 0000.0001) %MON trcstat_ptracer45_sd         =   7.3410516952280E-06
(PID.TID 0000.0001) %MON trcstat_ptracer45_del2       =   1.5174588497665E-07
(PID.TID 0000.0001) %MON trcstat_ptracer46_max        =   1.5457336485101E-04
(PID.TID 0000.0001) %MON trcstat_ptracer46_min        =  -6.1880012538296E-21
(PID.TID 0000.0001) %MON trcstat_ptracer46_mean       =   4.0492310027596E-07
(PID.TID 0000.0001) %MON trcstat_ptracer46_sd         =   6.4476142732564E-06
(PID.TID 0000.0001) %MON trcstat_ptracer46_del2       =   1.2892635842405E-07
(PID.TID 0000.0001) %MON trcstat_ptracer47_max        =   1.5369100168089E-04
(PID.TID 0000.0001) %MON trcstat_ptracer47_min        =  -5.1793911261024E-19
(PID.TID 0000.0001) %MON trcstat_ptracer47_mean       =   4.1021025631382E-07
(PID.TID 0000.0001) %MON trcstat_ptracer47_sd         =   6.4180204459088E-06
(PID.TID 0000.0001) %MON trcstat_ptracer47_del2       =   1.2822940499027E-07
(PID.TID 0000.0001) %MON trcstat_ptracer48_max        =   1.5369100168089E-04
(PID.TID 0000.0001) %MON trcstat_ptracer48_min        =  -7.7572214213476E-35
(PID.TID 0000.0001) %MON trcstat_ptracer48_mean       =   4.1021070545758E-07
(PID.TID 0000.0001) %MON trcstat_ptracer48_sd         =   6.4180204170539E-06
(PID.TID 0000.0001) %MON trcstat_ptracer48_del2       =   1.2822941947875E-07
(PID.TID 0000.0001) %MON trcstat_ptracer49_max        =   1.5369100168089E-04
(PID.TID 0000.0001) %MON trcstat_ptracer49_min        =   7.8262132590469E-51
(PID.TID 0000.0001) %MON trcstat_ptracer49_mean       =   4.2529515373787E-07
(PID.TID 0000.0001) %MON trcstat_ptracer49_sd         =   6.4173160845257E-06
(PID.TID 0000.0001) %MON trcstat_ptracer49_del2       =   1.3116873259112E-07
(PID.TID 0000.0001) %MON trcstat_ptracer50_max        =   1.5377235188335E-04
(PID.TID 0000.0001) %MON trcstat_ptracer50_min        =   9.6060816878585E-51
(PID.TID 0000.0001) %MON trcstat_ptracer50_mean       =   4.6593082528107E-07
(PID.TID 0000.0001) %MON trcstat_ptracer50_sd         =   6.6516205007043E-06
(PID.TID 0000.0001) %MON trcstat_ptracer50_del2       =   1.2416642621821E-07
(PID.TID 0000.0001) %MON trcstat_ptracer51_max        =   1.5389121498323E-04
(PID.TID 0000.0001) %MON trcstat_ptracer51_min        =   1.0000000770505E-50
(PID.TID 0000.0001) %MON trcstat_ptracer51_mean       =   4.2606985459319E-07
(PID.TID 0000.0001) %MON trcstat_ptracer51_sd         =   6.4247718193160E-06
(PID.TID 0000.0001) %MON trcstat_ptracer51_del2       =   1.2943706615219E-07
(PID.TID 0000.0001) %MON trcstat_ptracer52_max        =   1.5463726319979E-04
(PID.TID 0000.0001) %MON trcstat_ptracer52_min        =   4.5008168914447E-50
(PID.TID 0000.0001) %MON trcstat_ptracer52_mean       =   4.4110283768272E-07
(PID.TID 0000.0001) %MON trcstat_ptracer52_sd         =   6.5935233866667E-06
(PID.TID 0000.0001) %MON trcstat_ptracer52_del2       =   1.2678431092916E-07
(PID.TID 0000.0001) %MON trcstat_ptracer53_max        =   1.5368975959759E-04
(PID.TID 0000.0001) %MON trcstat_ptracer53_min        =  -2.5757733660729E-17
(PID.TID 0000.0001) %MON trcstat_ptracer53_mean       =   3.9170495239890E-07
(PID.TID 0000.0001) %MON trcstat_ptracer53_sd         =   6.3816299039575E-06
(PID.TID 0000.0001) %MON trcstat_ptracer53_del2       =   1.2869450246914E-07
(PID.TID 0000.0001) %MON trcstat_ptracer54_max        =   1.5369100168090E-04
(PID.TID 0000.0001) %MON trcstat_ptracer54_min        =  -4.2532941173473E-18
(PID.TID 0000.0001) %MON trcstat_ptracer54_mean       =   4.1021023768064E-07
(PID.TID 0000.0001) %MON trcstat_ptracer54_sd         =   6.4180204471341E-06
(PID.TID 0000.0001) %MON trcstat_ptracer54_del2       =   1.2822940480841E-07
(PID.TID 0000.0001) %MON trcstat_ptracer55_max        =   1.5368975959759E-04
(PID.TID 0000.0001) %MON trcstat_ptracer55_min        =  -2.1333050061183E-23
(PID.TID 0000.0001) %MON trcstat_ptracer55_mean       =   3.9170495275349E-07
(PID.TID 0000.0001) %MON trcstat_ptracer55_sd         =   6.3816299039352E-06
(PID.TID 0000.0001) %MON trcstat_ptracer55_del2       =   1.2869450247555E-07
(PID.TID 0000.0001) %MON trcstat_ptracer56_max        =   2.9277386498821E-02
(PID.TID 0000.0001) %MON trcstat_ptracer56_min        =   4.4579408576955E-41
(PID.TID 0000.0001) %MON trcstat_ptracer56_mean       =   3.4315109606973E-04
(PID.TID 0000.0001) %MON trcstat_ptracer56_sd         =   1.8354342485207E-03
(PID.TID 0000.0001) %MON trcstat_ptracer56_del2       =   4.6529366212696E-05
(PID.TID 0000.0001) %MON trcstat_ptracer57_max        =   5.3277672277992E-04
(PID.TID 0000.0001) %MON trcstat_ptracer57_min        =   1.6274199853518E-44
(PID.TID 0000.0001) %MON trcstat_ptracer57_mean       =   1.2418351576802E-06
(PID.TID 0000.0001) %MON trcstat_ptracer57_sd         =   1.1333990541151E-05
(PID.TID 0000.0001) %MON trcstat_ptracer57_del2       =   2.5908887844547E-07
(PID.TID 0000.0001) %MON trcstat_ptracer58_max        =   1.5508703539051E-04
(PID.TID 0000.0001) %MON trcstat_ptracer58_min        =   9.9269429966679E-34
(PID.TID 0000.0001) %MON trcstat_ptracer58_mean       =   5.6207696613654E-07
(PID.TID 0000.0001) %MON trcstat_ptracer58_sd         =   7.4202071536287E-06
(PID.TID 0000.0001) %MON trcstat_ptracer58_del2       =   1.3834513938997E-07
(PID.TID 0000.0001) %MON trcstat_ptracer59_max        =   1.5417662505194E-04
(PID.TID 0000.0001) %MON trcstat_ptracer59_min        =   9.7961319632575E-51
(PID.TID 0000.0001) %MON trcstat_ptracer59_mean       =   4.9779651975258E-07
(PID.TID 0000.0001) %MON trcstat_ptracer59_sd         =   6.7234039867184E-06
(PID.TID 0000.0001) %MON trcstat_ptracer59_del2       =   1.2966304210161E-07
(PID.TID 0000.0001) %MON trcstat_ptracer60_max        =   1.5401698826797E-04
(PID.TID 0000.0001) %MON trcstat_ptracer60_min        =  -6.1992234955828E-32
(PID.TID 0000.0001) %MON trcstat_ptracer60_mean       =   5.1867513378131E-07
(PID.TID 0000.0001) %MON trcstat_ptracer60_sd         =   7.0273957911738E-06
(PID.TID 0000.0001) %MON trcstat_ptracer60_del2       =   1.2991756184328E-07
(PID.TID 0000.0001) %MON trcstat_ptracer61_max        =   1.5430468039839E-04
(PID.TID 0000.0001) %MON trcstat_ptracer61_min        =   6.6452917326511E-30
(PID.TID 0000.0001) %MON trcstat_ptracer61_mean       =   4.6251186568191E-07
(PID.TID 0000.0001) %MON trcstat_ptracer61_sd         =   6.7914145335521E-06
(PID.TID 0000.0001) %MON trcstat_ptracer61_del2       =   1.2522063286485E-07
(PID.TID 0000.0001) %MON trcstat_ptracer62_max        =   1.5417475438902E-04
(PID.TID 0000.0001) %MON trcstat_ptracer62_min        =   9.9280135755511E-51
(PID.TID 0000.0001) %MON trcstat_ptracer62_mean       =   4.5873092221054E-07
(PID.TID 0000.0001) %MON trcstat_ptracer62_sd         =   6.5697488186176E-06
(PID.TID 0000.0001) %MON trcstat_ptracer62_del2       =   1.3061064966564E-07
(PID.TID 0000.0001) %MON trcstat_ptracer63_max        =   1.5393095587507E-04
(PID.TID 0000.0001) %MON trcstat_ptracer63_min        =   9.5791052456423E-51
(PID.TID 0000.0001) %MON trcstat_ptracer63_mean       =   5.6264338412594E-07
(PID.TID 0000.0001) %MON trcstat_ptracer63_sd         =   7.0162764930132E-06
(PID.TID 0000.0001) %MON trcstat_ptracer63_del2       =   1.2657494271918E-07
(PID.TID 0000.0001) %MON trcstat_ptracer64_max        =   4.6547498754202E-04
(PID.TID 0000.0001) %MON trcstat_ptracer64_min        =  -1.7896198135753E-24
(PID.TID 0000.0001) %MON trcstat_ptracer64_mean       =   2.7339482870284E-06
(PID.TID 0000.0001) %MON trcstat_ptracer64_sd         =   2.2018004749007E-05
(PID.TID 0000.0001) %MON trcstat_ptracer64_del2       =   6.4820529202425E-07
(PID.TID 0000.0001) %MON trcstat_ptracer65_max        =   1.5370960871220E-04
(PID.TID 0000.0001) %MON trcstat_ptracer65_min        =   4.1129640305280E-18
(PID.TID 0000.0001) %MON trcstat_ptracer65_mean       =   4.0289656704439E-07
(PID.TID 0000.0001) %MON trcstat_ptracer65_sd         =   6.4145182780031E-06
(PID.TID 0000.0001) %MON trcstat_ptracer65_del2       =   1.2833904581820E-07
(PID.TID 0000.0001) %MON trcstat_ptracer66_max        =   1.5357138129123E-04
(PID.TID 0000.0001) %MON trcstat_ptracer66_min        =  -5.1234188284283E-19
(PID.TID 0000.0001) %MON trcstat_ptracer66_mean       =   4.1031154612801E-07
(PID.TID 0000.0001) %MON trcstat_ptracer66_sd         =   6.4182527495992E-06
(PID.TID 0000.0001) %MON trcstat_ptracer66_del2       =   1.2818037685163E-07
(PID.TID 0000.0001) %MON trcstat_ptracer67_max        =   1.5368975959759E-04
(PID.TID 0000.0001) %MON trcstat_ptracer67_min        =  -2.6402100553082E-17
(PID.TID 0000.0001) %MON trcstat_ptracer67_mean       =   3.9171647699086E-07
(PID.TID 0000.0001) %MON trcstat_ptracer67_sd         =   6.3816924548033E-06
(PID.TID 0000.0001) %MON trcstat_ptracer67_del2       =   1.2869152824689E-07
(PID.TID 0000.0001) %MON trcstat_ptracer68_max        =   1.5446735320175E-04
(PID.TID 0000.0001) %MON trcstat_ptracer68_min        =  -6.3911898886322E-25
(PID.TID 0000.0001) %MON trcstat_ptracer68_mean       =   3.9377727756429E-07
(PID.TID 0000.0001) %MON trcstat_ptracer68_sd         =   6.4088687781616E-06
(PID.TID 0000.0001) %MON trcstat_ptracer68_del2       =   1.2913873619588E-07
(PID.TID 0000.0001) %MON trcstat_ptracer69_max        =   1.5357138129121E-04
(PID.TID 0000.0001) %MON trcstat_ptracer69_min        =  -5.8636483185960E-19
(PID.TID 0000.0001) %MON trcstat_ptracer69_mean       =   4.1031152517924E-07
(PID.TID 0000.0001) %MON trcstat_ptracer69_sd         =   6.4182527509313E-06
(PID.TID 0000.0001) %MON trcstat_ptracer69_del2       =   1.2818037641912E-07
(PID.TID 0000.0001) %MON trcstat_ptracer70_max        =   1.5369100168090E-04
(PID.TID 0000.0001) %MON trcstat_ptracer70_min        =  -2.6725416286017E-18
(PID.TID 0000.0001) %MON trcstat_ptracer70_mean       =   4.1021023769745E-07
(PID.TID 0000.0001) %MON trcstat_ptracer70_sd         =   6.4180204471346E-06
(PID.TID 0000.0001) %MON trcstat_ptracer70_del2       =   1.2822940480906E-07
(PID.TID 0000.0001) %MON trcstat_ptracer71_max        =   1.5496974873009E-04
(PID.TID 0000.0001) %MON trcstat_ptracer71_min        =   7.8218544786652E-31
(PID.TID 0000.0001) %MON trcstat_ptracer71_mean       =   6.0507657968957E-07
(PID.TID 0000.0001) %MON trcstat_ptracer71_sd         =   7.5657725492735E-06
(PID.TID 0000.0001) %MON trcstat_ptracer71_del2       =   1.4512772185565E-07
(PID.TID 0000.0001) %MON trcstat_ptracer72_max        =   1.5357138129122E-04
(PID.TID 0000.0001) %MON trcstat_ptracer72_min        =   9.9844323412528E-51
(PID.TID 0000.0001) %MON trcstat_ptracer72_mean       =   4.1046863083438E-07
(PID.TID 0000.0001) %MON trcstat_ptracer72_sd         =   6.4202009798587E-06
(PID.TID 0000.0001) %MON trcstat_ptracer72_del2       =   1.2822358886410E-07
(PID.TID 0000.0001) %MON trcstat_ptracer73_max        =   1.9196900831756E-02
(PID.TID 0000.0001) %MON trcstat_ptracer73_min        =  -3.8575001676960E-19
(PID.TID 0000.0001) %MON trcstat_ptracer73_mean       =   6.9685411745538E-04
(PID.TID 0000.0001) %MON trcstat_ptracer73_sd         =   1.8068553020960E-03
(PID.TID 0000.0001) %MON trcstat_ptracer73_del2       =   9.9060297428946E-05
(PID.TID 0000.0001) %MON trcstat_ptracer74_max        =   1.5370960871219E-04
(PID.TID 0000.0001) %MON trcstat_ptracer74_min        =  -1.3361676678101E-18
(PID.TID 0000.0001) %MON trcstat_ptracer74_mean       =   4.0288933715744E-07
(PID.TID 0000.0001) %MON trcstat_ptracer74_sd         =   6.4145186372281E-06
(PID.TID 0000.0001) %MON trcstat_ptracer74_del2       =   1.2833802291859E-07
(PID.TID 0000.0001) %MON trcstat_ptracer75_max        =   1.5385557543809E-04
(PID.TID 0000.0001) %MON trcstat_ptracer75_min        =   4.9786107617703E-37
(PID.TID 0000.0001) %MON trcstat_ptracer75_mean       =   4.3075477091451E-07
(PID.TID 0000.0001) %MON trcstat_ptracer75_sd         =   6.4466985353627E-06
(PID.TID 0000.0001) %MON trcstat_ptracer75_del2       =   1.3143508621414E-07
(PID.TID 0000.0001) %MON trcstat_ptracer76_max        =   1.5380932508198E-04
(PID.TID 0000.0001) %MON trcstat_ptracer76_min        =  -2.4503018090126E-19
(PID.TID 0000.0001) %MON trcstat_ptracer76_mean       =   3.9162984466107E-07
(PID.TID 0000.0001) %MON trcstat_ptracer76_sd         =   6.3814606691780E-06
(PID.TID 0000.0001) %MON trcstat_ptracer76_del2       =   1.2873965640325E-07
(PID.TID 0000.0001) %MON trcstat_ptracer77_max        =   1.5379203819523E-04
(PID.TID 0000.0001) %MON trcstat_ptracer77_min        =   6.7777528018288E-29
(PID.TID 0000.0001) %MON trcstat_ptracer77_mean       =   3.9153360613257E-07
(PID.TID 0000.0001) %MON trcstat_ptracer77_sd         =   6.3806261773564E-06
(PID.TID 0000.0001) %MON trcstat_ptracer77_del2       =   1.2873207960347E-07
(PID.TID 0000.0001) %MON trcstat_ptracer78_max        =   1.5381944147437E-04
(PID.TID 0000.0001) %MON trcstat_ptracer78_min        =  -1.3674166551124E-17
(PID.TID 0000.0001) %MON trcstat_ptracer78_mean       =   3.9183747421449E-07
(PID.TID 0000.0001) %MON trcstat_ptracer78_sd         =   6.3833982081298E-06
(PID.TID 0000.0001) %MON trcstat_ptracer78_del2       =   1.2871513176961E-07
(PID.TID 0000.0001) %MON trcstat_ptracer79_max        =   9.5549862417060E-02
(PID.TID 0000.0001) %MON trcstat_ptracer79_min        =   3.2555723255367E-15
(PID.TID 0000.0001) %MON trcstat_ptracer79_mean       =   6.7146073960972E-03
(PID.TID 0000.0001) %MON trcstat_ptracer79_sd         =   1.0294647926673E-02
(PID.TID 0000.0001) %MON trcstat_ptracer79_del2       =   8.6031756100544E-04
(PID.TID 0000.0001) %MON trcstat_ptracer80_max        =   1.5461824883896E-04
(PID.TID 0000.0001) %MON trcstat_ptracer80_min        =  -1.4822590611525E-23
(PID.TID 0000.0001) %MON trcstat_ptracer80_mean       =   4.1241536424081E-07
(PID.TID 0000.0001) %MON trcstat_ptracer80_sd         =   6.4528416266802E-06
(PID.TID 0000.0001) %MON trcstat_ptracer80_del2       =   1.2884468106450E-07
(PID.TID 0000.0001) %MON trcstat_ptracer81_max        =   1.5382507943870E-04
(PID.TID 0000.0001) %MON trcstat_ptracer81_min        =   8.7277361458083E-51
(PID.TID 0000.0001) %MON trcstat_ptracer81_mean       =   4.3429082001512E-07
(PID.TID 0000.0001) %MON trcstat_ptracer81_sd         =   6.5267929643183E-06
(PID.TID 0000.0001) %MON trcstat_ptracer81_del2       =   1.2577036884360E-07
(PID.TID 0000.0001) %MON trcstat_ptracer82_max        =   1.5513646538731E-04
(PID.TID 0000.0001) %MON trcstat_ptracer82_min        =  -2.8880499696503E-41
(PID.TID 0000.0001) %MON trcstat_ptracer82_mean       =   8.3321975209007E-07
(PID.TID 0000.0001) %MON trcstat_ptracer82_sd         =   8.1838796050142E-06
(PID.TID 0000.0001) %MON trcstat_ptracer82_del2       =   1.5688677674038E-07
(PID.TID 0000.0001) %MON trcstat_ptracer83_max        =   2.1112342609303E-02
(PID.TID 0000.0001) %MON trcstat_ptracer83_min        =   2.1670292251002E-35
(PID.TID 0000.0001) %MON trcstat_ptracer83_mean       =   1.3771704176894E-04
(PID.TID 0000.0001) %MON trcstat_ptracer83_sd         =   8.2988747405734E-04
(PID.TID 0000.0001) %MON trcstat_ptracer83_del2       =   2.0574962110970E-05
(PID.TID 0000.0001) %MON trcstat_ptracer84_max        =   2.1672585519479E-04
(PID.TID 0000.0001) %MON trcstat_ptracer84_min        =  -3.5834620387470E-28
(PID.TID 0000.0001) %MON trcstat_ptracer84_mean       =   9.5578236361810E-07
(PID.TID 0000.0001) %MON trcstat_ptracer84_sd         =   9.9662156376920E-06
(PID.TID 0000.0001) %MON trcstat_ptracer84_del2       =   1.9253366404164E-07
(PID.TID 0000.0001) %MON trcstat_ptracer85_max        =   1.5479506855032E-04
(PID.TID 0000.0001) %MON trcstat_ptracer85_min        =   8.4293962407705E-51
(PID.TID 0000.0001) %MON trcstat_ptracer85_mean       =   4.1395499417910E-07
(PID.TID 0000.0001) %MON trcstat_ptracer85_sd         =   6.4699453583556E-06
(PID.TID 0000.0001) %MON trcstat_ptracer85_del2       =   1.2923229998158E-07
(PID.TID 0000.0001) %MON trcstat_ptracer86_max        =   1.5368975959759E-04
(PID.TID 0000.0001) %MON trcstat_ptracer86_min        =  -2.5751217304461E-17
(PID.TID 0000.0001) %MON trcstat_ptracer86_mean       =   3.9170495239904E-07
(PID.TID 0000.0001) %MON trcstat_ptracer86_sd         =   6.3816299039580E-06
(PID.TID 0000.0001) %MON trcstat_ptracer86_del2       =   1.2869450246914E-07
(PID.TID 0000.0001) %MON trcstat_ptracer87_max        =   1.5392106444215E-04
(PID.TID 0000.0001) %MON trcstat_ptracer87_min        =  -1.8778578204708E-18
(PID.TID 0000.0001) %MON trcstat_ptracer87_mean       =   4.1099502203054E-07
(PID.TID 0000.0001) %MON trcstat_ptracer87_sd         =   6.4264068146153E-06
(PID.TID 0000.0001) %MON trcstat_ptracer87_del2       =   1.2827701725259E-07
(PID.TID 0000.0001) %MON trcstat_ptracer88_max        =   1.5438538751857E-04
(PID.TID 0000.0001) %MON trcstat_ptracer88_min        =  -1.1355362096727E-18
(PID.TID 0000.0001) %MON trcstat_ptracer88_mean       =   4.1247600304829E-07
(PID.TID 0000.0001) %MON trcstat_ptracer88_sd         =   6.4465840119075E-06
(PID.TID 0000.0001) %MON trcstat_ptracer88_del2       =   1.2864909212773E-07
(PID.TID 0000.0001) %MON trcstat_ptracer89_max        =   6.2886590811490E-02
(PID.TID 0000.0001) %MON trcstat_ptracer89_min        =   4.6202292588481E-30
(PID.TID 0000.0001) %MON trcstat_ptracer89_mean       =   3.6358474718901E-03
(PID.TID 0000.0001) %MON trcstat_ptracer89_sd         =   7.9027254068300E-03
(PID.TID 0000.0001) %MON trcstat_ptracer89_del2       =   3.8085722480817E-04
(PID.TID 0000.0001) %MON trcstat_ptracer90_max        =   1.5497535777014E-04
(PID.TID 0000.0001) %MON trcstat_ptracer90_min        =  -1.3589440172057E-18
(PID.TID 0000.0001) %MON trcstat_ptracer90_mean       =   4.0627829822434E-07
(PID.TID 0000.0001) %MON trcstat_ptracer90_sd         =   6.4662258494554E-06
(PID.TID 0000.0001) %MON trcstat_ptracer90_del2       =   1.2930162897103E-07
(PID.TID 0000.0001) %MON trcstat_ptracer91_max        =   2.5955735066196E-04
(PID.TID 0000.0001) %MON trcstat_ptracer91_min        =   2.3635097459869E-24
(PID.TID 0000.0001) %MON trcstat_ptracer91_mean       =   1.0661778394561E-06
(PID.TID 0000.0001) %MON trcstat_ptracer91_sd         =   1.1009304863609E-05
(PID.TID 0000.0001) %MON trcstat_ptracer91_del2       =   2.5347518703555E-07
(PID.TID 0000.0001) %MON trcstat_ptracer92_max        =   3.2567219351604E-04
(PID.TID 0000.0001) %MON trcstat_ptracer92_min        =   8.9658367051636E-43
(PID.TID 0000.0001) %MON trcstat_ptracer92_mean       =   2.0338071149365E-06
(PID.TID 0000.0001) %MON trcstat_ptracer92_sd         =   1.5046035642367E-05
(PID.TID 0000.0001) %MON trcstat_ptracer92_del2       =   2.9261464684809E-07
(PID.TID 0000.0001) %MON trcstat_ptracer93_max        =   7.3773219237049E-03
(PID.TID 0000.0001) %MON trcstat_ptracer93_min        =   3.4057139933461E-33
(PID.TID 0000.0001) %MON trcstat_ptracer93_mean       =   1.1644436276151E-04
(PID.TID 0000.0001) %MON trcstat_ptracer93_sd         =   4.3809573097452E-04
(PID.TID 0000.0001) %MON trcstat_ptracer93_del2       =   2.0704479255278E-05
(PID.TID 0000.0001) %MON trcstat_ptracer94_max        =   1.5368975959759E-04
(PID.TID 0000.0001) %MON trcstat_ptracer94_min        =   1.2412180572267E-28
(PID.TID 0000.0001) %MON trcstat_ptracer94_mean       =   3.9170618676768E-07
(PID.TID 0000.0001) %MON trcstat_ptracer94_sd         =   6.3816299328457E-06
(PID.TID 0000.0001) %MON trcstat_ptracer94_del2       =   1.2869455186694E-07
(PID.TID 0000.0001) %MON trcstat_ptracer95_max        =   1.5367372810917E-04
(PID.TID 0000.0001) %MON trcstat_ptracer95_min        =  -4.2349792754670E-18
(PID.TID 0000.0001) %MON trcstat_ptracer95_mean       =   4.1009518638086E-07
(PID.TID 0000.0001) %MON trcstat_ptracer95_sd         =   6.4171452396548E-06
(PID.TID 0000.0001) %MON trcstat_ptracer95_del2       =   1.2821980527290E-07
(PID.TID 0000.0001) %MON trcstat_ptracer96_max        =   1.5368975959758E-04
(PID.TID 0000.0001) %MON trcstat_ptracer96_min        =  -2.6872005796552E-17
(PID.TID 0000.0001) %MON trcstat_ptracer96_mean       =   3.9170495239439E-07
(PID.TID 0000.0001) %MON trcstat_ptracer96_sd         =   6.3816299039494E-06
(PID.TID 0000.0001) %MON trcstat_ptracer96_del2       =   1.2869450246894E-07
(PID.TID 0000.0001) %MON trcstat_ptracer97_max        =   8.1117530966171E-04
(PID.TID 0000.0001) %MON trcstat_ptracer97_min        =   1.0000000000689E-50
(PID.TID 0000.0001) %MON trcstat_ptracer97_mean       =   1.8557584141972E-06
(PID.TID 0000.0001) %MON trcstat_ptracer97_sd         =   1.6851857426249E-05
(PID.TID 0000.0001) %MON trcstat_ptracer97_del2       =   3.6115745518646E-07
(PID.TID 0000.0001) %MON trcstat_ptracer98_max        =   1.5401099309195E-04
(PID.TID 0000.0001) %MON trcstat_ptracer98_min        =  -1.0142730154810E-23
(PID.TID 0000.0001) %MON trcstat_ptracer98_mean       =   5.1351176941459E-07
(PID.TID 0000.0001) %MON trcstat_ptracer98_sd         =   6.9623196364648E-06
(PID.TID 0000.0001) %MON trcstat_ptracer98_del2       =   1.2874854797150E-07
(PID.TID 0000.0001) %MON trcstat_ptracer99_max        =   1.5381190053603E-04
(PID.TID 0000.0001) %MON trcstat_ptracer99_min        =  -9.8841188228744E-22
(PID.TID 0000.0001) %MON trcstat_ptracer99_mean       =   4.0269851658483E-07
(PID.TID 0000.0001) %MON trcstat_ptracer99_sd         =   6.4134642964817E-06
(PID.TID 0000.0001) %MON trcstat_ptracer99_del2       =   1.2837807036521E-07
(PID.TID 0000.0001) // =======================================================
(PID.TID 0000.0001) // End MONITOR ptracers field statistics
(PID.TID 0000.0001) // =======================================================
 Compute Stats, Diag. #   1386  SIqsw     vol(   0 ): 4.877E+11  Parms: SM      U1      
 Compute Stats, Diag. #     81  oceQsw    vol(   0 ): 4.877E+11  Parms: SM      U1      
 Compute Stats, Diag. #   1280  PAR       vol(   0 ): 2.820E+13  Parms: SM P    MR      
 Compute Stats, Diag. #    162  EXFswnet  vol(   0 ): 4.877E+11  Parms: SM      U1      
 Compute Stats, Diag. #    164  EXFswdn   vol(   0 ): 4.877E+11  Parms: SM      U1      
 Compute Stats, Diag. #     26  THETA     vol(   0 ): 2.820E+13  Parms: SM      MR      
 Compute Stats, Diag. #     29  SALTanom  vol(   0 ): 2.820E+13  Parms: SM      MR      
 Compute Stats, Diag. #   1281  PP        vol(   0 ): 2.820E+13  Parms: SM P    MR      
 Compute Stats, Diag. #   1049  TRAC79    vol(   0 ): 2.820E+13  Parms: SM P    MR      
 Compute Stats, Diag. #     23  ETAN      vol(   0 ): 4.877E+11  Parms: SM      M1      
 Compute Stats, Diag. #    213  TRAC03    vol(   0 ): 2.820E+13  Parms: SM P    MR      
(PID.TID 0000.0001) // =======================================================
(PID.TID 0000.0001) // Begin MONITOR EXF statistics
(PID.TID 0000.0001) // =======================================================
(PID.TID 0000.0001) %MON exf_tsnumber                 =                188390
(PID.TID 0000.0001) %MON exf_time_sec                 =   2.2606800000000E+08
(PID.TID 0000.0001) %MON exf_ustress_max              =   2.7524143825107E-01
(PID.TID 0000.0001) %MON exf_ustress_min              =  -3.3931258981604E-02
(PID.TID 0000.0001) %MON exf_ustress_mean             =   7.7019004291547E-02
(PID.TID 0000.0001) %MON exf_ustress_sd               =   7.6079364325337E-02
(PID.TID 0000.0001) %MON exf_ustress_del2             =   7.7099305516983E-04
(PID.TID 0000.0001) %MON exf_vstress_max              =   1.6499380665385E-01
(PID.TID 0000.0001) %MON exf_vstress_min              =  -1.9105444590986E-01
(PID.TID 0000.0001) %MON exf_vstress_mean             =  -2.1115459580531E-02
(PID.TID 0000.0001) %MON exf_vstress_sd               =   7.6385546436334E-02
(PID.TID 0000.0001) %MON exf_vstress_del2             =   1.5301287303950E-03
(PID.TID 0000.0001) %MON exf_hflux_max                =   6.5457924926377E+01
(PID.TID 0000.0001) %MON exf_hflux_min                =  -1.7148856713692E+02
(PID.TID 0000.0001) %MON exf_hflux_mean               =  -7.3891459209502E+01
(PID.TID 0000.0001) %MON exf_hflux_sd                 =   5.7570146628096E+01
(PID.TID 0000.0001) %MON exf_hflux_del2               =   2.8545844435513E+00
(PID.TID 0000.0001) %MON exf_sflux_max                =   1.0337737612225E-08
(PID.TID 0000.0001) %MON exf_sflux_min                =  -2.9303321108474E-07
(PID.TID 0000.0001) %MON exf_sflux_mean               =  -9.7563182769222E-08
(PID.TID 0000.0001) %MON exf_sflux_sd                 =   7.2744988470755E-08
(PID.TID 0000.0001) %MON exf_sflux_del2               =   1.1676258218492E-09
(PID.TID 0000.0001) %MON exf_uwind_max                =   1.2009456715379E+01
(PID.TID 0000.0001) %MON exf_uwind_min                =  -2.5384247174339E+00
(PID.TID 0000.0001) %MON exf_uwind_mean               =   5.6762843212979E+00
(PID.TID 0000.0001) %MON exf_uwind_sd                 =   3.6273094833200E+00
(PID.TID 0000.0001) %MON exf_uwind_del2               =   3.0961775854158E-02
(PID.TID 0000.0001) %MON exf_vwind_max                =   1.0543331188175E+01
(PID.TID 0000.0001) %MON exf_vwind_min                =  -8.6060208124615E+00
(PID.TID 0000.0001) %MON exf_vwind_mean               =  -1.3200983850785E+00
(PID.TID 0000.0001) %MON exf_vwind_sd                 =   5.4356083853026E+00
(PID.TID 0000.0001) %MON exf_vwind_del2               =   1.2928023831583E-01
(PID.TID 0000.0001) %MON exf_wspeed_max               =   1.3781135484199E+01
(PID.TID 0000.0001) %MON exf_wspeed_min               =   3.8855197715330E+00
(PID.TID 0000.0001) %MON exf_wspeed_mean              =   8.3997965961963E+00
(PID.TID 0000.0001) %MON exf_wspeed_sd                =   2.4717389002854E+00
(PID.TID 0000.0001) %MON exf_wspeed_del2              =   2.3008902801486E-01
(PID.TID 0000.0001) %MON exf_atemp_max                =   2.8014217219320E+02
(PID.TID 0000.0001) %MON exf_atemp_min                =   2.6687602536309E+02
(PID.TID 0000.0001) %MON exf_atemp_mean               =   2.7524278577806E+02
(PID.TID 0000.0001) %MON exf_atemp_sd                 =   2.5964301208782E+00
(PID.TID 0000.0001) %MON exf_atemp_del2               =   5.8002582172287E-02
(PID.TID 0000.0001) %MON exf_aqh_max                  =   6.0905678312088E-03
(PID.TID 0000.0001) %MON exf_aqh_min                  =   2.3891831539298E-03
(PID.TID 0000.0001) %MON exf_aqh_mean                 =   4.3426955810085E-03
(PID.TID 0000.0001) %MON exf_aqh_sd                   =   7.5054275685145E-04
(PID.TID 0000.0001) %MON exf_aqh_del2                 =   8.9274067558188E-05
(PID.TID 0000.0001) %MON exf_lwflux_max               =   8.1796424403793E+01
(PID.TID 0000.0001) %MON exf_lwflux_min               =   6.8244751761026E+00
(PID.TID 0000.0001) %MON exf_lwflux_mean              =   4.0118766366673E+01
(PID.TID 0000.0001) %MON exf_lwflux_sd                =   1.8924261499898E+01
(PID.TID 0000.0001) %MON exf_lwflux_del2              =   1.2796006807685E+00
(PID.TID 0000.0001) %MON exf_precip_max               =   2.9448932260704E-07
(PID.TID 0000.0001) %MON exf_precip_min               =   3.6262787242397E-09
(PID.TID 0000.0001) %MON exf_precip_mean              =   9.3353809268475E-08
(PID.TID 0000.0001) %MON exf_precip_sd                =   7.1456167926448E-08
(PID.TID 0000.0001) %MON exf_precip_del2              =   3.6663863725986E-09
(PID.TID 0000.0001) %MON exf_snowprecip_max           =   0.0000000000000E+00
(PID.TID 0000.0001) %MON exf_snowprecip_min           =   0.0000000000000E+00
(PID.TID 0000.0001) %MON exf_snowprecip_mean          =   0.0000000000000E+00
(PID.TID 0000.0001) %MON exf_snowprecip_sd            =   0.0000000000000E+00
(PID.TID 0000.0001) %MON exf_snowprecip_del2          =   0.0000000000000E+00
(PID.TID 0000.0001) %MON exf_swflux_max               =  -8.7004312031487E+01
(PID.TID 0000.0001) %MON exf_swflux_min               =  -2.0118764713436E+02
(PID.TID 0000.0001) %MON exf_swflux_mean              =  -1.3403138122070E+02
(PID.TID 0000.0001) %MON exf_swflux_sd                =   2.9102329980986E+01
(PID.TID 0000.0001) %MON exf_swflux_del2              =   2.9069276905312E-01
(PID.TID 0000.0001) %MON exf_evap_max                 =   2.5011936123424E-08
(PID.TID 0000.0001) %MON exf_evap_min                 =  -1.2448995956771E-08
(PID.TID 0000.0001) %MON exf_evap_mean                =   4.9714007135452E-09
(PID.TID 0000.0001) %MON exf_evap_sd                  =   8.1472667113399E-09
(PID.TID 0000.0001) %MON exf_evap_del2                =   5.7770160299305E-10
(PID.TID 0000.0001) %MON exf_swdown_max               =   2.3669134956983E+02
(PID.TID 0000.0001) %MON exf_swdown_min               =   1.0235801415469E+02
(PID.TID 0000.0001) %MON exf_swdown_mean              =   1.5768397790671E+02
(PID.TID 0000.0001) %MON exf_swdown_sd                =   3.4238035271748E+01
(PID.TID 0000.0001) %MON exf_swdown_del2              =   3.2979836566236E+00
(PID.TID 0000.0001) %MON exf_lwdown_max               =   3.0711964556292E+02
(PID.TID 0000.0001) %MON exf_lwdown_min               =   2.4260940651744E+02
(PID.TID 0000.0001) %MON exf_lwdown_mean              =   2.7529947824103E+02
(PID.TID 0000.0001) %MON exf_lwdown_sd                =   1.5154224190892E+01
(PID.TID 0000.0001) %MON exf_lwdown_del2              =   6.1404443054432E+00
(PID.TID 0000.0001) %MON exf_apressure_max            =   0.0000000000000E+00
(PID.TID 0000.0001) %MON exf_apressure_min            =   0.0000000000000E+00
(PID.TID 0000.0001) %MON exf_apressure_mean           =   0.0000000000000E+00
(PID.TID 0000.0001) %MON exf_apressure_sd             =   0.0000000000000E+00
(PID.TID 0000.0001) %MON exf_apressure_del2           =   0.0000000000000E+00
(PID.TID 0000.0001) %MON exf_runoff_max               =   7.4975011851692E-08
(PID.TID 0000.0001) %MON exf_runoff_min               =   0.0000000000000E+00
(PID.TID 0000.0001) %MON exf_runoff_mean              =   9.1807742142917E-09
(PID.TID 0000.0001) %MON exf_runoff_sd                =   1.9697588363459E-08
(PID.TID 0000.0001) %MON exf_runoff_del2              =   2.8708460564743E-10
(PID.TID 0000.0001) %MON exf_climsss_max              =   3.4374217242359E+01
(PID.TID 0000.0001) %MON exf_climsss_min              =   2.9703491636456E+00
(PID.TID 0000.0001) %MON exf_climsss_mean             =   1.3184801730402E+01
(PID.TID 0000.0001) %MON exf_climsss_sd               =   1.0358383064459E+01
(PID.TID 0000.0001) %MON exf_climsss_del2             =   4.9106987254261E-02
(PID.TID 0000.0001) // =======================================================
(PID.TID 0000.0001) // End MONITOR EXF statistics
(PID.TID 0000.0001) // =======================================================
 cg2d: Sum(rhs),rhsMax =  -6.10328965427272E+02  2.79696671724815E-01
(PID.TID 0000.0001)                    cg2d_init_res =    1.62972385735795E-01
(PID.TID 0000.0001)                       cg2d_iters =    20
(PID.TID 0000.0001)                         cg2d_res =    5.76897301483648E-06
 tmptotP   19424804546308.7     
 tmptotN   181340013546492.     
 tmptotFe   33450943508.2215     
 tmptotSi   480208586684700.     
 tmptotP   19424804546308.8     
 tmptotN   181340013546493.     
 tmptotFe   33451006495.1318     
 tmptotSi   480208586684700.     
 tmptotP   19424804546308.8     
 tmptotN   181340013546493.     
 tmptotFe   33451006495.1318     
 tmptotSi   480208586684700.     
 tmptotP   19424804546308.9     
 tmptotN   181340013546492.     
 tmptotFe   33451031847.6862     
 tmptotSi   480208586684701.     
 tmptotP   19424804546308.9     
 tmptotN   181340013546492.     
 tmptotFe   33451031847.6862     
 tmptotSi   480208586684701.     
 tmptotP   19424817855733.8     
 tmptotN   181340226497292.     
 tmptotFe   33451066922.6688     
 tmptotSi   480210340800532.     
 tmptotP   19424817855733.8     
 tmptotN   181340226497292.     
 tmptotFe   33451066922.6688     
 tmptotSi   480210340800532.     
 tmptotP   19424817855733.7     
 tmptotN   181340226497294.     
 tmptotFe   33451076786.2420     
 tmptotSi   480210340800532.     
(PID.TID 0000.0001) // =======================================================
(PID.TID 0000.0001) // Begin MONITOR dynamic field statistics
(PID.TID 0000.0001) // =======================================================
(PID.TID 0000.0001) %MON time_tsnumber                =                188391
(PID.TID 0000.0001) %MON time_secondsf                =   2.2606920000000E+08
(PID.TID 0000.0001) %MON dynstat_eta_max              =   6.5844798242760E-01
(PID.TID 0000.0001) %MON dynstat_eta_min              =   0.0000000000000E+00
(PID.TID 0000.0001) %MON dynstat_eta_mean             =   3.6390714789890E-01
(PID.TID 0000.0001) %MON dynstat_eta_sd               =   1.6064117943144E-01
(PID.TID 0000.0001) %MON dynstat_eta_del2             =   6.9831035718333E-03
(PID.TID 0000.0001) %MON dynstat_uvel_max             =   3.9159869393016E-01
(PID.TID 0000.0001) %MON dynstat_uvel_min             =  -3.3853751543833E-01
(PID.TID 0000.0001) %MON dynstat_uvel_mean            =   6.4474288418554E-03
(PID.TID 0000.0001) %MON dynstat_uvel_sd              =   6.2162743230328E-02
(PID.TID 0000.0001) %MON dynstat_uvel_del2            =   1.8134886214488E-02
(PID.TID 0000.0001) %MON dynstat_vvel_max             =   2.6173040095899E-01
(PID.TID 0000.0001) %MON dynstat_vvel_min             =  -4.4792634787599E-01
(PID.TID 0000.0001) %MON dynstat_vvel_mean            =   2.5982434504911E-03
(PID.TID 0000.0001) %MON dynstat_vvel_sd              =   6.3899706563631E-02
(PID.TID 0000.0001) %MON dynstat_vvel_del2            =   1.9732734303534E-02
(PID.TID 0000.0001) %MON dynstat_wvel_max             =   4.9555134572428E-04
(PID.TID 0000.0001) %MON dynstat_wvel_min             =  -5.0463034912281E-04
(PID.TID 0000.0001) %MON dynstat_wvel_mean            =  -2.5763370954467E-06
(PID.TID 0000.0001) %MON dynstat_wvel_sd              =   7.4216822668954E-05
(PID.TID 0000.0001) %MON dynstat_wvel_del2            =   3.0333262450445E-05
(PID.TID 0000.0001) %MON dynstat_theta_max            =   7.9703239001794E+00
(PID.TID 0000.0001) %MON dynstat_theta_min            =  -1.6137975950575E+00
(PID.TID 0000.0001) %MON dynstat_theta_mean           =   3.8282554788009E+00
(PID.TID 0000.0001) %MON dynstat_theta_sd             =   2.2082431225339E+00
(PID.TID 0000.0001) %MON dynstat_theta_del2           =   1.1595980249420E-01
(PID.TID 0000.0001) %MON dynstat_salt_max             =   3.4929503159445E+01
(PID.TID 0000.0001) %MON dynstat_salt_min             =   5.6522561218780E+00
(PID.TID 0000.0001) %MON dynstat_salt_mean            =   1.5735402079608E+01
(PID.TID 0000.0001) %MON dynstat_salt_sd              =   1.2130053399146E+01
(PID.TID 0000.0001) %MON dynstat_salt_del2            =   5.1623899342191E-02
(PID.TID 0000.0001) %MON extforcing_qnet_max          =   2.4073426780816E+02
(PID.TID 0000.0001) %MON extforcing_qnet_min          =  -8.7065753375966E+02
(PID.TID 0000.0001) %MON extforcing_qnet_mean         =  -5.5923618042344E+01
(PID.TID 0000.0001) %MON extforcing_qnet_sd           =   8.1502844829130E+01
(PID.TID 0000.0001) %MON extforcing_qnet_del2         =   1.4434021332389E+01
(PID.TID 0000.0001) %MON extforcing_qsw_max           =   0.0000000000000E+00
(PID.TID 0000.0001) %MON extforcing_qsw_min           =  -2.0118764713436E+02
(PID.TID 0000.0001) %MON extforcing_qsw_mean          =  -1.1031478565275E+02
(PID.TID 0000.0001) %MON extforcing_qsw_sd            =   6.1041004463530E+01
(PID.TID 0000.0001) %MON extforcing_qsw_del2          =   2.3047168512672E+00
(PID.TID 0000.0001) %MON extforcing_empmr_max         =   2.3701255098856E-03
(PID.TID 0000.0001) %MON extforcing_empmr_min         =  -9.8287426366349E-04
(PID.TID 0000.0001) %MON extforcing_empmr_mean        =  -9.6700651473850E-05
(PID.TID 0000.0001) %MON extforcing_empmr_sd          =   1.8934868312383E-04
(PID.TID 0000.0001) %MON extforcing_empmr_del2        =   4.0192586990604E-05
(PID.TID 0000.0001) %MON advcfl_uvel_max              =   2.2942371305566E-02
(PID.TID 0000.0001) %MON advcfl_vvel_max              =   3.2902759041758E-02
(PID.TID 0000.0001) %MON advcfl_wvel_max              =   5.9466161486914E-02
(PID.TID 0000.0001) %MON advcfl_W_hf_max              =   5.9466161486914E-02
(PID.TID 0000.0001) %MON pe_b_mean                    =   1.3423516972155E-02
(PID.TID 0000.0001) %MON ke_max                       =   1.0748794384030E-01
(PID.TID 0000.0001) %MON ke_mean                      =   3.2294309410974E-03
(PID.TID 0000.0001) %MON ke_vol                       =   2.8199008699639E+13
(PID.TID 0000.0001) %MON vort_r_min                   =  -3.6218844158136E-05
(PID.TID 0000.0001) %MON vort_r_max                   =   3.3204247076930E-05
(PID.TID 0000.0001) %MON vort_a_mean                  =   1.2397552865078E-04
(PID.TID 0000.0001) %MON vort_a_sd                    =   6.2842137753241E-06
(PID.TID 0000.0001) %MON vort_p_mean                  =   1.7325640976307E-04
(PID.TID 0000.0001) %MON vort_p_sd                    =   1.0959682755255E-04
(PID.TID 0000.0001) %MON surfExpan_theta_mean         =  -3.2871795280789E-07
(PID.TID 0000.0001) %MON surfExpan_salt_mean          =   1.5046647521806E-06
(PID.TID 0000.0001) // =======================================================
(PID.TID 0000.0001) // End MONITOR dynamic field statistics
(PID.TID 0000.0001) // =======================================================
(PID.TID 0000.0001) // =======================================================
(PID.TID 0000.0001) // Begin MONITOR SEAICE statistics
(PID.TID 0000.0001) // =======================================================
(PID.TID 0000.0001) %MON seaice_tsnumber              =                188391
(PID.TID 0000.0001) %MON seaice_time_sec              =   2.2606920000000E+08
(PID.TID 0000.0001) %MON seaice_area_max              =   1.0000000000000E+00
(PID.TID 0000.0001) %MON seaice_area_min              =   0.0000000000000E+00
(PID.TID 0000.0001) %MON seaice_area_mean             =   2.2073353793470E-01
(PID.TID 0000.0001) %MON seaice_area_sd               =   3.8256392906820E-01
(PID.TID 0000.0001) %MON seaice_area_del2             =   1.9333695106796E-02
(PID.TID 0000.0001) %MON seaice_heff_max              =   1.0117452843095E+00
(PID.TID 0000.0001) %MON seaice_heff_min              =   0.0000000000000E+00
(PID.TID 0000.0001) %MON seaice_heff_mean             =   1.2224785859788E-01
(PID.TID 0000.0001) %MON seaice_heff_sd               =   2.4141288807415E-01
(PID.TID 0000.0001) %MON seaice_heff_del2             =   1.0481901389138E-02
(PID.TID 0000.0001) %MON seaice_hsnow_max             =   2.7592931404570E-01
(PID.TID 0000.0001) %MON seaice_hsnow_min             =   0.0000000000000E+00
(PID.TID 0000.0001) %MON seaice_hsnow_mean            =   3.0084497717418E-02
(PID.TID 0000.0001) %MON seaice_hsnow_sd              =   6.3694375730040E-02
(PID.TID 0000.0001) %MON seaice_hsnow_del2            =   1.8845198350262E-03
(PID.TID 0000.0001) // =======================================================
(PID.TID 0000.0001) // End MONITOR SEAICE statistics
(PID.TID 0000.0001) // =======================================================
(PID.TID 0000.0001) // =======================================================
(PID.TID 0000.0001) // Begin MONITOR ptracer field statistics
(PID.TID 0000.0001) // =======================================================
(PID.TID 0000.0001) %MON trcstat_ptracer01_max        =   4.3205767925024E+00
(PID.TID 0000.0001) %MON trcstat_ptracer01_min        =   3.8004071506283E-02
(PID.TID 0000.0001) %MON trcstat_ptracer01_mean       =   5.8697162560242E-01
(PID.TID 0000.0001) %MON trcstat_ptracer01_sd         =   5.1389714053377E-01
(PID.TID 0000.0001) %MON trcstat_ptracer01_del2       =   1.3852309559814E-02
(PID.TID 0000.0001) %MON trcstat_ptracer02_max        =   4.4160101366644E+01
(PID.TID 0000.0001) %MON trcstat_ptracer02_min        =   1.4930485372809E-02
(PID.TID 0000.0001) %MON trcstat_ptracer02_mean       =   4.6208048343569E+00
(PID.TID 0000.0001) %MON trcstat_ptracer02_sd         =   6.6642044673044E+00
(PID.TID 0000.0001) %MON trcstat_ptracer02_del2       =   2.0308076754298E-01
(PID.TID 0000.0001) %MON trcstat_ptracer03_max        =   1.3876603634406E-03
(PID.TID 0000.0001) %MON trcstat_ptracer03_min        =   5.8921514359085E-04
(PID.TID 0000.0001) %MON trcstat_ptracer03_mean       =   1.0857269684450E-03
(PID.TID 0000.0001) %MON trcstat_ptracer03_sd         =   1.4465887292580E-04
(PID.TID 0000.0001) %MON trcstat_ptracer03_del2       =   9.1865155530591E-06
(PID.TID 0000.0001) %MON trcstat_ptracer04_max        =   1.5669459466573E+02
(PID.TID 0000.0001) %MON trcstat_ptracer04_min        =   6.3221303463303E-02
(PID.TID 0000.0001) %MON trcstat_ptracer04_mean       =   1.4507306370331E+01
(PID.TID 0000.0001) %MON trcstat_ptracer04_sd         =   1.6977564096216E+01
(PID.TID 0000.0001) %MON trcstat_ptracer04_del2       =   3.9961726976051E-01
(PID.TID 0000.0001) %MON trcstat_ptracer05_max        =   2.8335202226749E-01
(PID.TID 0000.0001) %MON trcstat_ptracer05_min        =   8.3374494311074E-08
(PID.TID 0000.0001) %MON trcstat_ptracer05_mean       =   5.9546373046939E-02
(PID.TID 0000.0001) %MON trcstat_ptracer05_sd         =   5.7224803914395E-02
(PID.TID 0000.0001) %MON trcstat_ptracer05_del2       =   2.5846253616279E-03
(PID.TID 0000.0001) %MON trcstat_ptracer06_max        =   4.5336323562799E+00
(PID.TID 0000.0001) %MON trcstat_ptracer06_min        =   1.3339919089772E-06
(PID.TID 0000.0001) %MON trcstat_ptracer06_mean       =   9.5274196875103E-01
(PID.TID 0000.0001) %MON trcstat_ptracer06_sd         =   9.1559686263031E-01
(PID.TID 0000.0001) %MON trcstat_ptracer06_del2       =   4.1354005786047E-02
(PID.TID 0000.0001) %MON trcstat_ptracer07_max        =   2.8335202226749E-04
(PID.TID 0000.0001) %MON trcstat_ptracer07_min        =   8.3374494311077E-11
(PID.TID 0000.0001) %MON trcstat_ptracer07_mean       =   5.9546373041808E-05
(PID.TID 0000.0001) %MON trcstat_ptracer07_sd         =   5.7224803976640E-05
(PID.TID 0000.0001) %MON trcstat_ptracer07_del2       =   2.5846253775522E-06
(PID.TID 0000.0001) %MON trcstat_ptracer08_max        =   7.1918654615410E-03
(PID.TID 0000.0001) %MON trcstat_ptracer08_min        =   6.8784747642391E-33
(PID.TID 0000.0001) %MON trcstat_ptracer08_mean       =   5.1902584314087E-04
(PID.TID 0000.0001) %MON trcstat_ptracer08_sd         =   1.1973308373909E-03
(PID.TID 0000.0001) %MON trcstat_ptracer08_del2       =   3.3637092383663E-05
(PID.TID 0000.0001) %MON trcstat_ptracer09_max        =   1.1506984738466E-01
(PID.TID 0000.0001) %MON trcstat_ptracer09_min        =   1.1005559622783E-31
(PID.TID 0000.0001) %MON trcstat_ptracer09_mean       =   8.3044134902540E-03
(PID.TID 0000.0001) %MON trcstat_ptracer09_sd         =   1.9157293398254E-02
(PID.TID 0000.0001) %MON trcstat_ptracer09_del2       =   5.3819347813861E-04
(PID.TID 0000.0001) %MON trcstat_ptracer10_max        =   7.1918655642464E-06
(PID.TID 0000.0001) %MON trcstat_ptracer10_min        =   6.8784747642676E-36
(PID.TID 0000.0001) %MON trcstat_ptracer10_mean       =   5.1902584418975E-07
(PID.TID 0000.0001) %MON trcstat_ptracer10_sd         =   1.1973308397635E-06
(PID.TID 0000.0001) %MON trcstat_ptracer10_del2       =   3.3637092479095E-08
(PID.TID 0000.0001) %MON trcstat_ptracer11_max        =   8.8712037342925E-03
(PID.TID 0000.0001) %MON trcstat_ptracer11_min        =   1.9376776230972E-32
(PID.TID 0000.0001) %MON trcstat_ptracer11_mean       =   3.6914732829220E-04
(PID.TID 0000.0001) %MON trcstat_ptracer11_sd         =   1.3643931671251E-03
(PID.TID 0000.0001) %MON trcstat_ptracer11_del2       =   3.7904912993113E-05
(PID.TID 0000.0001) %MON trcstat_ptracer12_max        =   8.4285346713218E-02
(PID.TID 0000.0001) %MON trcstat_ptracer12_min        =   9.0068914411517E-23
(PID.TID 0000.0001) %MON trcstat_ptracer12_mean       =   1.7700496649316E-03
(PID.TID 0000.0001) %MON trcstat_ptracer12_sd         =   7.4815817772677E-03
(PID.TID 0000.0001) %MON trcstat_ptracer12_del2       =   1.9296027178232E-04
(PID.TID 0000.0001) %MON trcstat_ptracer13_max        =   1.3485655474115E+00
(PID.TID 0000.0001) %MON trcstat_ptracer13_min        =   1.4411026305843E-21
(PID.TID 0000.0001) %MON trcstat_ptracer13_mean       =   2.8320794638906E-02
(PID.TID 0000.0001) %MON trcstat_ptracer13_sd         =   1.1970530843628E-01
(PID.TID 0000.0001) %MON trcstat_ptracer13_del2       =   3.0873643485171E-03
(PID.TID 0000.0001) %MON trcstat_ptracer14_max        =   8.4285346765389E-05
(PID.TID 0000.0001) %MON trcstat_ptracer14_min        =   9.0068914411502E-26
(PID.TID 0000.0001) %MON trcstat_ptracer14_mean       =   1.7700496662606E-06
(PID.TID 0000.0001) %MON trcstat_ptracer14_sd         =   7.4815817807974E-06
(PID.TID 0000.0001) %MON trcstat_ptracer14_del2       =   1.9296027184443E-07
(PID.TID 0000.0001) %MON trcstat_ptracer15_max        =   9.4889874387912E-01
(PID.TID 0000.0001) %MON trcstat_ptracer15_min        =   9.4539418559364E-22
(PID.TID 0000.0001) %MON trcstat_ptracer15_mean       =   1.8808837434527E-02
(PID.TID 0000.0001) %MON trcstat_ptracer15_sd         =   9.1869868735723E-02
(PID.TID 0000.0001) %MON trcstat_ptracer15_del2       =   2.6701275599525E-03
(PID.TID 0000.0001) %MON trcstat_ptracer16_max        =   9.9799445681269E-01
(PID.TID 0000.0001) %MON trcstat_ptracer16_min        =   3.3837952091636E-09
(PID.TID 0000.0001) %MON trcstat_ptracer16_mean       =   2.0814722441174E-02
(PID.TID 0000.0001) %MON trcstat_ptracer16_sd         =   4.8923553155870E-02
(PID.TID 0000.0001) %MON trcstat_ptracer16_del2       =   3.4949022911130E-03
(PID.TID 0000.0001) %MON trcstat_ptracer17_max        =   1.5967911309003E+01
(PID.TID 0000.0001) %MON trcstat_ptracer17_min        =   5.4140723346617E-08
(PID.TID 0000.0001) %MON trcstat_ptracer17_mean       =   3.3303555905879E-01
(PID.TID 0000.0001) %MON trcstat_ptracer17_sd         =   7.8277685049392E-01
(PID.TID 0000.0001) %MON trcstat_ptracer17_del2       =   5.5918436657808E-02
(PID.TID 0000.0001) %MON trcstat_ptracer18_max        =   9.9799445681269E-04
(PID.TID 0000.0001) %MON trcstat_ptracer18_min        =   3.3837952091636E-12
(PID.TID 0000.0001) %MON trcstat_ptracer18_mean       =   2.0814722445306E-05
(PID.TID 0000.0001) %MON trcstat_ptracer18_sd         =   4.8923553150264E-05
(PID.TID 0000.0001) %MON trcstat_ptracer18_del2       =   3.4949022924117E-06
(PID.TID 0000.0001) %MON trcstat_ptracer19_max        =   3.0515958858915E+02
(PID.TID 0000.0001) %MON trcstat_ptracer19_min        =   9.1702947893092E-08
(PID.TID 0000.0001) %MON trcstat_ptracer19_mean       =   2.2602014066871E+00
(PID.TID 0000.0001) %MON trcstat_ptracer19_sd         =   1.2389997050396E+01
(PID.TID 0000.0001) %MON trcstat_ptracer19_del2       =   3.9047129367752E-01
(PID.TID 0000.0001) %MON trcstat_ptracer20_max        =   1.9607152562936E+00
(PID.TID 0000.0001) %MON trcstat_ptracer20_min        =   2.2784965045299E-07
(PID.TID 0000.0001) %MON trcstat_ptracer20_mean       =   1.7510806399330E-02
(PID.TID 0000.0001) %MON trcstat_ptracer20_sd         =   8.2141090300851E-02
(PID.TID 0000.0001) %MON trcstat_ptracer20_del2       =   2.9157499689076E-03
(PID.TID 0000.0001) %MON trcstat_ptracer21_max        =   2.3332583375906E+00
(PID.TID 0000.0001) %MON trcstat_ptracer21_min        =   3.0151265490017E-05
(PID.TID 0000.0001) %MON trcstat_ptracer21_mean       =   1.6310560363904E-01
(PID.TID 0000.0001) %MON trcstat_ptracer21_sd         =   1.9125012432098E-01
(PID.TID 0000.0001) %MON trcstat_ptracer21_del2       =   1.0655108454775E-02
(PID.TID 0000.0001) %MON trcstat_ptracer22_max        =   1.5382270788396E-04
(PID.TID 0000.0001) %MON trcstat_ptracer22_min        =  -2.1068568873057E-19
(PID.TID 0000.0001) %MON trcstat_ptracer22_mean       =   4.1061406994784E-07
(PID.TID 0000.0001) %MON trcstat_ptracer22_sd         =   6.4242846622102E-06
(PID.TID 0000.0001) %MON trcstat_ptracer22_del2       =   1.2834500886253E-07
(PID.TID 0000.0001) %MON trcstat_ptracer23_max        =   5.2155940334413E-04
(PID.TID 0000.0001) %MON trcstat_ptracer23_min        =  -2.2601834167984E-24
(PID.TID 0000.0001) %MON trcstat_ptracer23_mean       =   8.2560001427896E-06
(PID.TID 0000.0001) %MON trcstat_ptracer23_sd         =   4.1378778945994E-05
(PID.TID 0000.0001) %MON trcstat_ptracer23_del2       =   9.7998434286009E-07
(PID.TID 0000.0001) %MON trcstat_ptracer24_max        =   1.5382270788400E-04
(PID.TID 0000.0001) %MON trcstat_ptracer24_min        =   5.7060590092532E-51
(PID.TID 0000.0001) %MON trcstat_ptracer24_mean       =   4.1074639233600E-07
(PID.TID 0000.0001) %MON trcstat_ptracer24_sd         =   6.4242762085222E-06
(PID.TID 0000.0001) %MON trcstat_ptracer24_del2       =   1.2835602563802E-07
(PID.TID 0000.0001) %MON trcstat_ptracer25_max        =   1.5462827752743E-04
(PID.TID 0000.0001) %MON trcstat_ptracer25_min        =   8.0705445367496E-34
(PID.TID 0000.0001) %MON trcstat_ptracer25_mean       =   3.2162566998338E-06
(PID.TID 0000.0001) %MON trcstat_ptracer25_sd         =   1.3138400619705E-05
(PID.TID 0000.0001) %MON trcstat_ptracer25_del2       =   7.3767844954118E-07
(PID.TID 0000.0001) %MON trcstat_ptracer26_max        =   1.5472097034146E-04
(PID.TID 0000.0001) %MON trcstat_ptracer26_min        =  -2.6866073160540E-17
(PID.TID 0000.0001) %MON trcstat_ptracer26_mean       =   3.9459531270503E-07
(PID.TID 0000.0001) %MON trcstat_ptracer26_sd         =   6.4242580486372E-06
(PID.TID 0000.0001) %MON trcstat_ptracer26_del2       =   1.2934272254003E-07
(PID.TID 0000.0001) %MON trcstat_ptracer27_max        =   9.6144154889408E-03
(PID.TID 0000.0001) %MON trcstat_ptracer27_min        =   1.2866675300173E-19
(PID.TID 0000.0001) %MON trcstat_ptracer27_mean       =   2.5537458670444E-04
(PID.TID 0000.0001) %MON trcstat_ptracer27_sd         =   6.7821913076179E-04
(PID.TID 0000.0001) %MON trcstat_ptracer27_del2       =   4.2663180814160E-05
(PID.TID 0000.0001) %MON trcstat_ptracer28_max        =   9.2133077579136E-02
(PID.TID 0000.0001) %MON trcstat_ptracer28_min        =   6.7039062981872E-24
(PID.TID 0000.0001) %MON trcstat_ptracer28_mean       =   1.7075010512658E-03
(PID.TID 0000.0001) %MON trcstat_ptracer28_sd         =   5.9239924446127E-03
(PID.TID 0000.0001) %MON trcstat_ptracer28_del2       =   3.0730239710308E-04
(PID.TID 0000.0001) %MON trcstat_ptracer29_max        =   1.0582566171179E-03
(PID.TID 0000.0001) %MON trcstat_ptracer29_min        =   9.9999999999874E-51
(PID.TID 0000.0001) %MON trcstat_ptracer29_mean       =   3.3681218818058E-06
(PID.TID 0000.0001) %MON trcstat_ptracer29_sd         =   2.4916609900082E-05
(PID.TID 0000.0001) %MON trcstat_ptracer29_del2       =   4.7189840089849E-07
(PID.TID 0000.0001) %MON trcstat_ptracer30_max        =   1.4201757718936E-02
(PID.TID 0000.0001) %MON trcstat_ptracer30_min        =   1.2287036747172E-29
(PID.TID 0000.0001) %MON trcstat_ptracer30_mean       =   1.8282257687672E-04
(PID.TID 0000.0001) %MON trcstat_ptracer30_sd         =   9.3897999836774E-04
(PID.TID 0000.0001) %MON trcstat_ptracer30_del2       =   3.4876584785044E-05
(PID.TID 0000.0001) %MON trcstat_ptracer31_max        =   1.5517750449352E-04
(PID.TID 0000.0001) %MON trcstat_ptracer31_min        =   1.2563043280736E-14
(PID.TID 0000.0001) %MON trcstat_ptracer31_mean       =   4.0886458655517E-07
(PID.TID 0000.0001) %MON trcstat_ptracer31_sd         =   6.4787017542979E-06
(PID.TID 0000.0001) %MON trcstat_ptracer31_del2       =   1.2951282678452E-07
(PID.TID 0000.0001) %MON trcstat_ptracer32_max        =   1.5396102741146E-04
(PID.TID 0000.0001) %MON trcstat_ptracer32_min        =  -5.4490588694353E-19
(PID.TID 0000.0001) %MON trcstat_ptracer32_mean       =   4.0323606904180E-07
(PID.TID 0000.0001) %MON trcstat_ptracer32_sd         =   6.4206749831905E-06
(PID.TID 0000.0001) %MON trcstat_ptracer32_del2       =   1.2849616687887E-07
(PID.TID 0000.0001) %MON trcstat_ptracer33_max        =   1.5382145656317E-04
(PID.TID 0000.0001) %MON trcstat_ptracer33_min        =  -2.0619571105829E-21
(PID.TID 0000.0001) %MON trcstat_ptracer33_mean       =   3.9219074050422E-07
(PID.TID 0000.0001) %MON trcstat_ptracer33_sd         =   6.3881380385468E-06
(PID.TID 0000.0001) %MON trcstat_ptracer33_del2       =   1.2878396345333E-07
(PID.TID 0000.0001) %MON trcstat_ptracer34_max        =   1.5388561419614E-04
(PID.TID 0000.0001) %MON trcstat_ptracer34_min        =   5.6885254964602E-51
(PID.TID 0000.0001) %MON trcstat_ptracer34_mean       =   4.1064846937885E-07
(PID.TID 0000.0001) %MON trcstat_ptracer34_sd         =   6.4247994049348E-06
(PID.TID 0000.0001) %MON trcstat_ptracer34_del2       =   1.2831282801807E-07
(PID.TID 0000.0001) %MON trcstat_ptracer35_max        =   1.5435116503575E-04
(PID.TID 0000.0001) %MON trcstat_ptracer35_min        =  -2.5981363743585E-17
(PID.TID 0000.0001) %MON trcstat_ptracer35_mean       =   3.9417963958997E-07
(PID.TID 0000.0001) %MON trcstat_ptracer35_sd         =   6.4148852415474E-06
(PID.TID 0000.0001) %MON trcstat_ptracer35_del2       =   1.2919455379877E-07
(PID.TID 0000.0001) %MON trcstat_ptracer36_max        =   1.5380541647146E-04
(PID.TID 0000.0001) %MON trcstat_ptracer36_min        =  -5.8860784472533E-19
(PID.TID 0000.0001) %MON trcstat_ptracer36_mean       =   4.1045660675878E-07
(PID.TID 0000.0001) %MON trcstat_ptracer36_sd         =   6.4232810631716E-06
(PID.TID 0000.0001) %MON trcstat_ptracer36_del2       =   1.2833692373805E-07
(PID.TID 0000.0001) %MON trcstat_ptracer37_max        =   1.5505476235196E-04
(PID.TID 0000.0001) %MON trcstat_ptracer37_min        =  -3.8814509606827E-36
(PID.TID 0000.0001) %MON trcstat_ptracer37_mean       =   4.1798412585920E-07
(PID.TID 0000.0001) %MON trcstat_ptracer37_sd         =   6.4836109313816E-06
(PID.TID 0000.0001) %MON trcstat_ptracer37_del2       =   1.2949823235154E-07
(PID.TID 0000.0001) %MON trcstat_ptracer38_max        =   1.5389527769612E-04
(PID.TID 0000.0001) %MON trcstat_ptracer38_min        =   9.8830332282327E-51
(PID.TID 0000.0001) %MON trcstat_ptracer38_mean       =   4.6431783095078E-07
(PID.TID 0000.0001) %MON trcstat_ptracer38_sd         =   6.5862575793858E-06
(PID.TID 0000.0001) %MON trcstat_ptracer38_del2       =   1.3023014969773E-07
(PID.TID 0000.0001) %MON trcstat_ptracer39_max        =   2.8211069827671E-03
(PID.TID 0000.0001) %MON trcstat_ptracer39_min        =   7.4217719388072E-33
(PID.TID 0000.0001) %MON trcstat_ptracer39_mean       =   1.9539449299692E-05
(PID.TID 0000.0001) %MON trcstat_ptracer39_sd         =   1.3449600705587E-04
(PID.TID 0000.0001) %MON trcstat_ptracer39_del2       =   3.4976306772330E-06
(PID.TID 0000.0001) %MON trcstat_ptracer40_max        =   1.5380541647148E-04
(PID.TID 0000.0001) %MON trcstat_ptracer40_min        =  -7.0886205306079E-19
(PID.TID 0000.0001) %MON trcstat_ptracer40_mean       =   4.1045660506834E-07
(PID.TID 0000.0001) %MON trcstat_ptracer40_sd         =   6.4232810632822E-06
(PID.TID 0000.0001) %MON trcstat_ptracer40_del2       =   1.2833692370672E-07
(PID.TID 0000.0001) %MON trcstat_ptracer41_max        =   1.5370296678331E-04
(PID.TID 0000.0001) %MON trcstat_ptracer41_min        =  -4.8650340804781E-18
(PID.TID 0000.0001) %MON trcstat_ptracer41_mean       =   4.1076619450999E-07
(PID.TID 0000.0001) %MON trcstat_ptracer41_sd         =   6.4246568154256E-06
(PID.TID 0000.0001) %MON trcstat_ptracer41_del2       =   1.2827593946038E-07
(PID.TID 0000.0001) %MON trcstat_ptracer42_max        =   1.5442190815153E-04
(PID.TID 0000.0001) %MON trcstat_ptracer42_min        =   7.4284027359463E-17
(PID.TID 0000.0001) %MON trcstat_ptracer42_mean       =   3.9493178776835E-07
(PID.TID 0000.0001) %MON trcstat_ptracer42_sd         =   6.4171009505778E-06
(PID.TID 0000.0001) %MON trcstat_ptracer42_del2       =   1.2943776073891E-07
(PID.TID 0000.0001) %MON trcstat_ptracer43_max        =   1.0580910815333E-03
(PID.TID 0000.0001) %MON trcstat_ptracer43_min        =   5.4165712719195E-14
(PID.TID 0000.0001) %MON trcstat_ptracer43_mean       =   2.5181647040175E-05
(PID.TID 0000.0001) %MON trcstat_ptracer43_sd         =   8.8071489325764E-05
(PID.TID 0000.0001) %MON trcstat_ptracer43_del2       =   4.6354594288626E-06
(PID.TID 0000.0001) %MON trcstat_ptracer44_max        =   1.5380541647142E-04
(PID.TID 0000.0001) %MON trcstat_ptracer44_min        =  -1.3558520158724E-31
(PID.TID 0000.0001) %MON trcstat_ptracer44_mean       =   4.1047573920881E-07
(PID.TID 0000.0001) %MON trcstat_ptracer44_sd         =   6.4232798421379E-06
(PID.TID 0000.0001) %MON trcstat_ptracer44_del2       =   1.2833804742076E-07
(PID.TID 0000.0001) %MON trcstat_ptracer45_max        =   1.5455536859960E-04
(PID.TID 0000.0001) %MON trcstat_ptracer45_min        =   1.4103338070982E-50
(PID.TID 0000.0001) %MON trcstat_ptracer45_mean       =   6.6317474220268E-07
(PID.TID 0000.0001) %MON trcstat_ptracer45_sd         =   7.3454026216678E-06
(PID.TID 0000.0001) %MON trcstat_ptracer45_del2       =   1.5180287879126E-07
(PID.TID 0000.0001) %MON trcstat_ptracer46_max        =   1.5471098302835E-04
(PID.TID 0000.0001) %MON trcstat_ptracer46_min        =  -6.1878525927070E-21
(PID.TID 0000.0001) %MON trcstat_ptracer46_mean       =   4.0569990843691E-07
(PID.TID 0000.0001) %MON trcstat_ptracer46_sd         =   6.4556262806162E-06
(PID.TID 0000.0001) %MON trcstat_ptracer46_del2       =   1.2899464183949E-07
(PID.TID 0000.0001) %MON trcstat_ptracer47_max        =   1.5382270788400E-04
(PID.TID 0000.0001) %MON trcstat_ptracer47_min        =  -5.1790930713490E-19
(PID.TID 0000.0001) %MON trcstat_ptracer47_mean       =   4.1061360998197E-07
(PID.TID 0000.0001) %MON trcstat_ptracer47_sd         =   6.4242846917613E-06
(PID.TID 0000.0001) %MON trcstat_ptracer47_del2       =   1.2834498969792E-07
(PID.TID 0000.0001) %MON trcstat_ptracer48_max        =   1.5382270788400E-04
(PID.TID 0000.0001) %MON trcstat_ptracer48_min        =  -7.7571657731180E-35
(PID.TID 0000.0001) %MON trcstat_ptracer48_mean       =   4.1061405802751E-07
(PID.TID 0000.0001) %MON trcstat_ptracer48_sd         =   6.4242846629768E-06
(PID.TID 0000.0001) %MON trcstat_ptracer48_del2       =   1.2834500432355E-07
(PID.TID 0000.0001) %MON trcstat_ptracer49_max        =   1.5382270788399E-04
(PID.TID 0000.0001) %MON trcstat_ptracer49_min        =   7.8260563622909E-51
(PID.TID 0000.0001) %MON trcstat_ptracer49_mean       =   4.2568824771887E-07
(PID.TID 0000.0001) %MON trcstat_ptracer49_sd         =   6.4235804103956E-06
(PID.TID 0000.0001) %MON trcstat_ptracer49_del2       =   1.3128098910834E-07
(PID.TID 0000.0001) %MON trcstat_ptracer50_max        =   1.5390413675735E-04
(PID.TID 0000.0001) %MON trcstat_ptracer50_min        =   9.6060133817831E-51
(PID.TID 0000.0001) %MON trcstat_ptracer50_mean       =   4.6637385337115E-07
(PID.TID 0000.0001) %MON trcstat_ptracer50_sd         =   6.6579636362537E-06
(PID.TID 0000.0001) %MON trcstat_ptracer50_del2       =   1.2426733780407E-07
(PID.TID 0000.0001) %MON trcstat_ptracer51_max        =   1.5402091857655E-04
(PID.TID 0000.0001) %MON trcstat_ptracer51_min        =   1.0000000771519E-50
(PID.TID 0000.0001) %MON trcstat_ptracer51_mean       =   4.2669213252504E-07
(PID.TID 0000.0001) %MON trcstat_ptracer51_sd         =   6.4319466375848E-06
(PID.TID 0000.0001) %MON trcstat_ptracer51_del2       =   1.2952280255757E-07
(PID.TID 0000.0001) %MON trcstat_ptracer52_max        =   1.5477308985725E-04
(PID.TID 0000.0001) %MON trcstat_ptracer52_min        =   4.5020595757615E-50
(PID.TID 0000.0001) %MON trcstat_ptracer52_mean       =   4.4182016313351E-07
(PID.TID 0000.0001) %MON trcstat_ptracer52_sd         =   6.6014728618495E-06
(PID.TID 0000.0001) %MON trcstat_ptracer52_del2       =   1.2684666004847E-07
(PID.TID 0000.0001) %MON trcstat_ptracer53_max        =   1.5382145656319E-04
(PID.TID 0000.0001) %MON trcstat_ptracer53_min        =  -2.5751459521172E-17
(PID.TID 0000.0001) %MON trcstat_ptracer53_mean       =   3.9219074030970E-07
(PID.TID 0000.0001) %MON trcstat_ptracer53_sd         =   6.3881380385781E-06
(PID.TID 0000.0001) %MON trcstat_ptracer53_del2       =   1.2878396344259E-07
(PID.TID 0000.0001) %MON trcstat_ptracer54_max        =   1.5382270788401E-04
(PID.TID 0000.0001) %MON trcstat_ptracer54_min        =  -4.2532941173473E-18
(PID.TID 0000.0001) %MON trcstat_ptracer54_mean       =   4.1061359103332E-07
(PID.TID 0000.0001) %MON trcstat_ptracer54_sd         =   6.4242846930068E-06
(PID.TID 0000.0001) %MON trcstat_ptracer54_del2       =   1.2834498960133E-07
(PID.TID 0000.0001) %MON trcstat_ptracer55_max        =   1.5382145656319E-04
(PID.TID 0000.0001) %MON trcstat_ptracer55_min        =  -2.1331619239452E-23
(PID.TID 0000.0001) %MON trcstat_ptracer55_mean       =   3.9219074066383E-07
(PID.TID 0000.0001) %MON trcstat_ptracer55_sd         =   6.3881380385560E-06
(PID.TID 0000.0001) %MON trcstat_ptracer55_del2       =   1.2878396344902E-07
(PID.TID 0000.0001) %MON trcstat_ptracer56_max        =   2.9259588362037E-02
(PID.TID 0000.0001) %MON trcstat_ptracer56_min        =   4.4595271129313E-41
(PID.TID 0000.0001) %MON trcstat_ptracer56_mean       =   3.4284315783223E-04
(PID.TID 0000.0001) %MON trcstat_ptracer56_sd         =   1.8339252969754E-03
(PID.TID 0000.0001) %MON trcstat_ptracer56_del2       =   4.6481375298167E-05
(PID.TID 0000.0001) %MON trcstat_ptracer57_max        =   5.3158063213666E-04
(PID.TID 0000.0001) %MON trcstat_ptracer57_min        =   1.6274200738630E-44
(PID.TID 0000.0001) %MON trcstat_ptracer57_mean       =   1.2406989588875E-06
(PID.TID 0000.0001) %MON trcstat_ptracer57_sd         =   1.1321388041776E-05
(PID.TID 0000.0001) %MON trcstat_ptracer57_del2       =   2.5869479891382E-07
(PID.TID 0000.0001) %MON trcstat_ptracer58_max        =   1.5522592650544E-04
(PID.TID 0000.0001) %MON trcstat_ptracer58_min        =   9.9301183308500E-34
(PID.TID 0000.0001) %MON trcstat_ptracer58_mean       =   5.6345308161513E-07
(PID.TID 0000.0001) %MON trcstat_ptracer58_sd         =   7.4334766885767E-06
(PID.TID 0000.0001) %MON trcstat_ptracer58_del2       =   1.3850612330714E-07
(PID.TID 0000.0001) %MON trcstat_ptracer59_max        =   1.5430665443322E-04
(PID.TID 0000.0001) %MON trcstat_ptracer59_min        =   9.7961244340620E-51
(PID.TID 0000.0001) %MON trcstat_ptracer59_mean       =   4.9840701477250E-07
(PID.TID 0000.0001) %MON trcstat_ptracer59_sd         =   6.7304805274328E-06
(PID.TID 0000.0001) %MON trcstat_ptracer59_del2       =   1.2976788964710E-07
(PID.TID 0000.0001) %MON trcstat_ptracer60_max        =   1.5414897509158E-04
(PID.TID 0000.0001) %MON trcstat_ptracer60_min        =  -6.1992234955827E-32
(PID.TID 0000.0001) %MON trcstat_ptracer60_mean       =   5.1912008622574E-07
(PID.TID 0000.0001) %MON trcstat_ptracer60_sd         =   7.0334325282779E-06
(PID.TID 0000.0001) %MON trcstat_ptracer60_del2       =   1.2998383713645E-07
(PID.TID 0000.0001) %MON trcstat_ptracer61_max        =   1.5443765118144E-04
(PID.TID 0000.0001) %MON trcstat_ptracer61_min        =   6.6454624600510E-30
(PID.TID 0000.0001) %MON trcstat_ptracer61_mean       =   4.6331336182126E-07
(PID.TID 0000.0001) %MON trcstat_ptracer61_sd         =   6.7999875655795E-06
(PID.TID 0000.0001) %MON trcstat_ptracer61_del2       =   1.2522726420373E-07
(PID.TID 0000.0001) %MON trcstat_ptracer62_max        =   1.5430364635657E-04
(PID.TID 0000.0001) %MON trcstat_ptracer62_min        =   9.9279890355666E-51
(PID.TID 0000.0001) %MON trcstat_ptracer62_mean       =   4.5967939059021E-07
(PID.TID 0000.0001) %MON trcstat_ptracer62_sd         =   6.5781330131319E-06
(PID.TID 0000.0001) %MON trcstat_ptracer62_del2       =   1.3072880996826E-07
(PID.TID 0000.0001) %MON trcstat_ptracer63_max        =   1.5406285058865E-04
(PID.TID 0000.0001) %MON trcstat_ptracer63_min        =   9.5790371313886E-51
(PID.TID 0000.0001) %MON trcstat_ptracer63_mean       =   5.6298956051240E-07
(PID.TID 0000.0001) %MON trcstat_ptracer63_sd         =   7.0220176759523E-06
(PID.TID 0000.0001) %MON trcstat_ptracer63_del2       =   1.2669135811573E-07
(PID.TID 0000.0001) %MON trcstat_ptracer64_max        =   4.6596930711684E-04
(PID.TID 0000.0001) %MON trcstat_ptracer64_min        =  -1.7896198135753E-24
(PID.TID 0000.0001) %MON trcstat_ptracer64_mean       =   2.7330768974385E-06
(PID.TID 0000.0001) %MON trcstat_ptracer64_sd         =   2.2010452339827E-05
(PID.TID 0000.0001) %MON trcstat_ptracer64_del2       =   6.4735893594532E-07
(PID.TID 0000.0001) %MON trcstat_ptracer65_max        =   1.5384132576437E-04
(PID.TID 0000.0001) %MON trcstat_ptracer65_min        =   4.1082450681181E-18
(PID.TID 0000.0001) %MON trcstat_ptracer65_mean       =   4.0337283435111E-07
(PID.TID 0000.0001) %MON trcstat_ptracer65_sd         =   6.4209936731927E-06
(PID.TID 0000.0001) %MON trcstat_ptracer65_del2       =   1.2843030809505E-07
(PID.TID 0000.0001) %MON trcstat_ptracer66_max        =   1.5370296678331E-04
(PID.TID 0000.0001) %MON trcstat_ptracer66_min        =  -5.1234188284283E-19
(PID.TID 0000.0001) %MON trcstat_ptracer66_mean       =   4.1076622027206E-07
(PID.TID 0000.0001) %MON trcstat_ptracer66_sd         =   6.4246568137358E-06
(PID.TID 0000.0001) %MON trcstat_ptracer66_del2       =   1.2827593997367E-07
(PID.TID 0000.0001) %MON trcstat_ptracer67_max        =   1.5382145656319E-04
(PID.TID 0000.0001) %MON trcstat_ptracer67_min        =  -2.6395704538406E-17
(PID.TID 0000.0001) %MON trcstat_ptracer67_mean       =   3.9220520104739E-07
(PID.TID 0000.0001) %MON trcstat_ptracer67_sd         =   6.3882124306863E-06
(PID.TID 0000.0001) %MON trcstat_ptracer67_del2       =   1.2878022345946E-07
(PID.TID 0000.0001) %MON trcstat_ptracer68_max        =   1.5459596725165E-04
(PID.TID 0000.0001) %MON trcstat_ptracer68_min        =  -6.3908169319168E-25
(PID.TID 0000.0001) %MON trcstat_ptracer68_mean       =   3.9473414703256E-07
(PID.TID 0000.0001) %MON trcstat_ptracer68_sd         =   6.4173040965946E-06
(PID.TID 0000.0001) %MON trcstat_ptracer68_del2       =   1.2919098622304E-07
(PID.TID 0000.0001) %MON trcstat_ptracer69_max        =   1.5370296678330E-04
(PID.TID 0000.0001) %MON trcstat_ptracer69_min        =  -5.8636483185960E-19
(PID.TID 0000.0001) %MON trcstat_ptracer69_mean       =   4.1076619935872E-07
(PID.TID 0000.0001) %MON trcstat_ptracer69_sd         =   6.4246568150660E-06
(PID.TID 0000.0001) %MON trcstat_ptracer69_del2       =   1.2827593954319E-07
(PID.TID 0000.0001) %MON trcstat_ptracer70_max        =   1.5382270788400E-04
(PID.TID 0000.0001) %MON trcstat_ptracer70_min        =  -2.6725416286017E-18
(PID.TID 0000.0001) %MON trcstat_ptracer70_mean       =   4.1061359105010E-07
(PID.TID 0000.0001) %MON trcstat_ptracer70_sd         =   6.4242846930072E-06
(PID.TID 0000.0001) %MON trcstat_ptracer70_del2       =   1.2834498960198E-07
(PID.TID 0000.0001) %MON trcstat_ptracer71_max        =   1.5510529335427E-04
(PID.TID 0000.0001) %MON trcstat_ptracer71_min        =   7.8243404113247E-31
(PID.TID 0000.0001) %MON trcstat_ptracer71_mean       =   6.0620707141768E-07
(PID.TID 0000.0001) %MON trcstat_ptracer71_sd         =   7.5768652541078E-06
(PID.TID 0000.0001) %MON trcstat_ptracer71_del2       =   1.4524857887944E-07
(PID.TID 0000.0001) %MON trcstat_ptracer72_max        =   1.5370296678331E-04
(PID.TID 0000.0001) %MON trcstat_ptracer72_min        =   9.9844307000188E-51
(PID.TID 0000.0001) %MON trcstat_ptracer72_mean       =   4.1096007653809E-07
(PID.TID 0000.0001) %MON trcstat_ptracer72_sd         =   6.4267346806846E-06
(PID.TID 0000.0001) %MON trcstat_ptracer72_del2       =   1.2832506770324E-07
(PID.TID 0000.0001) %MON trcstat_ptracer73_max        =   1.9283939399225E-02
(PID.TID 0000.0001) %MON trcstat_ptracer73_min        =  -3.8574308094042E-19
(PID.TID 0000.0001) %MON trcstat_ptracer73_mean       =   6.9715810689165E-04
(PID.TID 0000.0001) %MON trcstat_ptracer73_sd         =   1.8084406302722E-03
(PID.TID 0000.0001) %MON trcstat_ptracer73_del2       =   9.9157111000189E-05
(PID.TID 0000.0001) %MON trcstat_ptracer74_max        =   1.5384132576436E-04
(PID.TID 0000.0001) %MON trcstat_ptracer74_min        =  -1.3361676678101E-18
(PID.TID 0000.0001) %MON trcstat_ptracer74_mean       =   4.0336561476833E-07
(PID.TID 0000.0001) %MON trcstat_ptracer74_sd         =   6.4209940320464E-06
(PID.TID 0000.0001) %MON trcstat_ptracer74_del2       =   1.2842928669145E-07
(PID.TID 0000.0001) %MON trcstat_ptracer75_max        =   1.5398744873150E-04
(PID.TID 0000.0001) %MON trcstat_ptracer75_min        =   4.9801145711800E-37
(PID.TID 0000.0001) %MON trcstat_ptracer75_mean       =   4.3117153205900E-07
(PID.TID 0000.0001) %MON trcstat_ptracer75_sd         =   6.4530557905893E-06
(PID.TID 0000.0001) %MON trcstat_ptracer75_del2       =   1.3154123367979E-07
(PID.TID 0000.0001) %MON trcstat_ptracer76_max        =   1.5394114273345E-04
(PID.TID 0000.0001) %MON trcstat_ptracer76_min        =  -2.4502671805290E-19
(PID.TID 0000.0001) %MON trcstat_ptracer76_mean       =   3.9207731432910E-07
(PID.TID 0000.0001) %MON trcstat_ptracer76_sd         =   6.3878574875756E-06
(PID.TID 0000.0001) %MON trcstat_ptracer76_del2       =   1.2884712648141E-07
(PID.TID 0000.0001) %MON trcstat_ptracer77_max        =   1.5392383799101E-04
(PID.TID 0000.0001) %MON trcstat_ptracer77_min        =   6.7812729483785E-29
(PID.TID 0000.0001) %MON trcstat_ptracer77_mean       =   3.9194834227159E-07
(PID.TID 0000.0001) %MON trcstat_ptracer77_sd         =   6.3869166332010E-06
(PID.TID 0000.0001) %MON trcstat_ptracer77_del2       =   1.2884222227563E-07
(PID.TID 0000.0001) %MON trcstat_ptracer78_max        =   1.5395059164972E-04
(PID.TID 0000.0001) %MON trcstat_ptracer78_min        =  -1.3670152280525E-17
(PID.TID 0000.0001) %MON trcstat_ptracer78_mean       =   3.9235076557862E-07
(PID.TID 0000.0001) %MON trcstat_ptracer78_sd         =   6.3900314755540E-06
(PID.TID 0000.0001) %MON trcstat_ptracer78_del2       =   1.2880071521072E-07
(PID.TID 0000.0001) %MON trcstat_ptracer79_max        =   9.5389260640464E-02
(PID.TID 0000.0001) %MON trcstat_ptracer79_min        =   3.2519588425258E-15
(PID.TID 0000.0001) %MON trcstat_ptracer79_mean       =   6.7039456688536E-03
(PID.TID 0000.0001) %MON trcstat_ptracer79_sd         =   1.0274306403365E-02
(PID.TID 0000.0001) %MON trcstat_ptracer79_del2       =   8.5934718840956E-04
(PID.TID 0000.0001) %MON trcstat_ptracer80_max        =   1.5475398018549E-04
(PID.TID 0000.0001) %MON trcstat_ptracer80_min        =  -1.4815482155368E-23
(PID.TID 0000.0001) %MON trcstat_ptracer80_mean       =   4.1318315592375E-07
(PID.TID 0000.0001) %MON trcstat_ptracer80_sd         =   6.4609621283385E-06
(PID.TID 0000.0001) %MON trcstat_ptracer80_del2       =   1.2893316652977E-07
(PID.TID 0000.0001) %MON trcstat_ptracer81_max        =   1.5395693541801E-04
(PID.TID 0000.0001) %MON trcstat_ptracer81_min        =   8.7275611756863E-51
(PID.TID 0000.0001) %MON trcstat_ptracer81_mean       =   4.3469283199044E-07
(PID.TID 0000.0001) %MON trcstat_ptracer81_sd         =   6.5330585686583E-06
(PID.TID 0000.0001) %MON trcstat_ptracer81_del2       =   1.2589268710511E-07
(PID.TID 0000.0001) %MON trcstat_ptracer82_max        =   1.5527354058490E-04
(PID.TID 0000.0001) %MON trcstat_ptracer82_min        =  -9.7438557256119E-42
(PID.TID 0000.0001) %MON trcstat_ptracer82_mean       =   8.3361791741108E-07
(PID.TID 0000.0001) %MON trcstat_ptracer82_sd         =   8.1903306491759E-06
(PID.TID 0000.0001) %MON trcstat_ptracer82_del2       =   1.5690098581608E-07
(PID.TID 0000.0001) %MON trcstat_ptracer83_max        =   2.1029271938271E-02
(PID.TID 0000.0001) %MON trcstat_ptracer83_min        =   2.1686101907841E-35
(PID.TID 0000.0001) %MON trcstat_ptracer83_mean       =   1.3727130669260E-04
(PID.TID 0000.0001) %MON trcstat_ptracer83_sd         =   8.2649812814515E-04
(PID.TID 0000.0001) %MON trcstat_ptracer83_del2       =   2.0484534400921E-05
(PID.TID 0000.0001) %MON trcstat_ptracer84_max        =   2.1696168202599E-04
(PID.TID 0000.0001) %MON trcstat_ptracer84_min        =  -3.5834620387781E-28
(PID.TID 0000.0001) %MON trcstat_ptracer84_mean       =   9.5690251580936E-07
(PID.TID 0000.0001) %MON trcstat_ptracer84_sd         =   9.9795122523514E-06
(PID.TID 0000.0001) %MON trcstat_ptracer84_del2       =   1.9287831077870E-07
(PID.TID 0000.0001) %MON trcstat_ptracer85_max        =   1.5493362508874E-04
(PID.TID 0000.0001) %MON trcstat_ptracer85_min        =   8.4292272516462E-51
(PID.TID 0000.0001) %MON trcstat_ptracer85_mean       =   4.1483347310142E-07
(PID.TID 0000.0001) %MON trcstat_ptracer85_sd         =   6.4787018963918E-06
(PID.TID 0000.0001) %MON trcstat_ptracer85_del2       =   1.2932847472730E-07
(PID.TID 0000.0001) %MON trcstat_ptracer86_max        =   1.5382145656319E-04
(PID.TID 0000.0001) %MON trcstat_ptracer86_min        =  -2.5744944381537E-17
(PID.TID 0000.0001) %MON trcstat_ptracer86_mean       =   3.9219074030986E-07
(PID.TID 0000.0001) %MON trcstat_ptracer86_sd         =   6.3881380385788E-06
(PID.TID 0000.0001) %MON trcstat_ptracer86_del2       =   1.2878396344259E-07
(PID.TID 0000.0001) %MON trcstat_ptracer87_max        =   1.5405165603763E-04
(PID.TID 0000.0001) %MON trcstat_ptracer87_min        =  -1.8778578204708E-18
(PID.TID 0000.0001) %MON trcstat_ptracer87_mean       =   4.1162025538436E-07
(PID.TID 0000.0001) %MON trcstat_ptracer87_sd         =   6.4335449598730E-06
(PID.TID 0000.0001) %MON trcstat_ptracer87_del2       =   1.2835513011553E-07
(PID.TID 0000.0001) %MON trcstat_ptracer88_max        =   1.5451559731872E-04
(PID.TID 0000.0001) %MON trcstat_ptracer88_min        =  -1.1355362096727E-18
(PID.TID 0000.0001) %MON trcstat_ptracer88_mean       =   4.1342976090412E-07
(PID.TID 0000.0001) %MON trcstat_ptracer88_sd         =   6.4551121688636E-06
(PID.TID 0000.0001) %MON trcstat_ptracer88_del2       =   1.2872524571334E-07
(PID.TID 0000.0001) %MON trcstat_ptracer89_max        =   6.2718924631466E-02
(PID.TID 0000.0001) %MON trcstat_ptracer89_min        =   4.6232203934385E-30
(PID.TID 0000.0001) %MON trcstat_ptracer89_mean       =   3.6306439802497E-03
(PID.TID 0000.0001) %MON trcstat_ptracer89_sd         =   7.8899562400152E-03
(PID.TID 0000.0001) %MON trcstat_ptracer89_del2       =   3.8061278485395E-04
(PID.TID 0000.0001) %MON trcstat_ptracer90_max        =   1.5511073021105E-04
(PID.TID 0000.0001) %MON trcstat_ptracer90_min        =  -1.3589440172057E-18
(PID.TID 0000.0001) %MON trcstat_ptracer90_mean       =   4.0734343610269E-07
(PID.TID 0000.0001) %MON trcstat_ptracer90_sd         =   6.4753909767911E-06
(PID.TID 0000.0001) %MON trcstat_ptracer90_del2       =   1.2938445390720E-07
(PID.TID 0000.0001) %MON trcstat_ptracer91_max        =   2.5981017870962E-04
(PID.TID 0000.0001) %MON trcstat_ptracer91_min        =   2.3660399500512E-24
(PID.TID 0000.0001) %MON trcstat_ptracer91_mean       =   1.0688645687044E-06
(PID.TID 0000.0001) %MON trcstat_ptracer91_sd         =   1.1033894295256E-05
(PID.TID 0000.0001) %MON trcstat_ptracer91_del2       =   2.5419825189456E-07
(PID.TID 0000.0001) %MON trcstat_ptracer92_max        =   3.2416413756073E-04
(PID.TID 0000.0001) %MON trcstat_ptracer92_min        =   8.9658366648922E-43
(PID.TID 0000.0001) %MON trcstat_ptracer92_mean       =   2.0296143883100E-06
(PID.TID 0000.0001) %MON trcstat_ptracer92_sd         =   1.5014659872159E-05
(PID.TID 0000.0001) %MON trcstat_ptracer92_del2       =   2.9166668395073E-07
(PID.TID 0000.0001) %MON trcstat_ptracer93_max        =   7.3596677861328E-03
(PID.TID 0000.0001) %MON trcstat_ptracer93_min        =   3.4057377862166E-33
(PID.TID 0000.0001) %MON trcstat_ptracer93_mean       =   1.1627376170020E-04
(PID.TID 0000.0001) %MON trcstat_ptracer93_sd         =   4.3727898720509E-04
(PID.TID 0000.0001) %MON trcstat_ptracer93_del2       =   2.0660289433616E-05
(PID.TID 0000.0001) %MON trcstat_ptracer94_max        =   1.5382145656319E-04
(PID.TID 0000.0001) %MON trcstat_ptracer94_min        =   1.2412355020874E-28
(PID.TID 0000.0001) %MON trcstat_ptracer94_mean       =   3.9219197265306E-07
(PID.TID 0000.0001) %MON trcstat_ptracer94_sd         =   6.3881380673650E-06
(PID.TID 0000.0001) %MON trcstat_ptracer94_del2       =   1.2878401268622E-07
(PID.TID 0000.0001) %MON trcstat_ptracer95_max        =   1.5380541647146E-04
(PID.TID 0000.0001) %MON trcstat_ptracer95_min        =  -4.2349792754670E-18
(PID.TID 0000.0001) %MON trcstat_ptracer95_mean       =   4.1045660418270E-07
(PID.TID 0000.0001) %MON trcstat_ptracer95_sd         =   6.4232810633642E-06
(PID.TID 0000.0001) %MON trcstat_ptracer95_del2       =   1.2833692368980E-07
(PID.TID 0000.0001) %MON trcstat_ptracer96_max        =   1.5382145656318E-04
(PID.TID 0000.0001) %MON trcstat_ptracer96_min        =  -2.6865523720183E-17
(PID.TID 0000.0001) %MON trcstat_ptracer96_mean       =   3.9219074030520E-07
(PID.TID 0000.0001) %MON trcstat_ptracer96_sd         =   6.3881380385700E-06
(PID.TID 0000.0001) %MON trcstat_ptracer96_del2       =   1.2878396344239E-07
(PID.TID 0000.0001) %MON trcstat_ptracer97_max        =   8.0935421058510E-04
(PID.TID 0000.0001) %MON trcstat_ptracer97_min        =   1.0000000000689E-50
(PID.TID 0000.0001) %MON trcstat_ptracer97_mean       =   1.8534952520352E-06
(PID.TID 0000.0001) %MON trcstat_ptracer97_sd         =   1.6823138251111E-05
(PID.TID 0000.0001) %MON trcstat_ptracer97_del2       =   3.6053837619078E-07
(PID.TID 0000.0001) %MON trcstat_ptracer98_max        =   1.5414296835017E-04
(PID.TID 0000.0001) %MON trcstat_ptracer98_min        =  -1.0142713498758E-23
(PID.TID 0000.0001) %MON trcstat_ptracer98_mean       =   5.1394163295281E-07
(PID.TID 0000.0001) %MON trcstat_ptracer98_sd         =   6.9682771739630E-06
(PID.TID 0000.0001) %MON trcstat_ptracer98_del2       =   1.2884535361957E-07
(PID.TID 0000.0001) %MON trcstat_ptracer99_max        =   1.5394372043372E-04
(PID.TID 0000.0001) %MON trcstat_ptracer99_min        =  -9.8828352603065E-22
(PID.TID 0000.0001) %MON trcstat_ptracer99_mean       =   4.0309433932328E-07
(PID.TID 0000.0001) %MON trcstat_ptracer99_sd         =   6.4196963521892E-06
(PID.TID 0000.0001) %MON trcstat_ptracer99_del2       =   1.2849179423082E-07
(PID.TID 0000.0001) // =======================================================
(PID.TID 0000.0001) // End MONITOR ptracers field statistics
(PID.TID 0000.0001) // =======================================================
 Compute Stats, Diag. #   1386  SIqsw     vol(   0 ): 4.877E+11  Parms: SM      U1      
 Compute Stats, Diag. #     81  oceQsw    vol(   0 ): 4.877E+11  Parms: SM      U1      
 Compute Stats, Diag. #   1280  PAR       vol(   0 ): 2.820E+13  Parms: SM P    MR      
 Compute Stats, Diag. #    162  EXFswnet  vol(   0 ): 4.877E+11  Parms: SM      U1      
 Compute Stats, Diag. #    164  EXFswdn   vol(   0 ): 4.877E+11  Parms: SM      U1      
 Compute Stats, Diag. #     26  THETA     vol(   0 ): 2.820E+13  Parms: SM      MR      
 Compute Stats, Diag. #     29  SALTanom  vol(   0 ): 2.820E+13  Parms: SM      MR      
 Compute Stats, Diag. #   1281  PP        vol(   0 ): 2.820E+13  Parms: SM P    MR      
 Compute Stats, Diag. #   1049  TRAC79    vol(   0 ): 2.820E+13  Parms: SM P    MR      
 Compute Stats, Diag. #     23  ETAN      vol(   0 ): 4.877E+11  Parms: SM      M1      
 Compute Stats, Diag. #    213  TRAC03    vol(   0 ): 2.820E+13  Parms: SM P    MR      
(PID.TID 0000.0001) // =======================================================
(PID.TID 0000.0001) // Begin MONITOR EXF statistics
(PID.TID 0000.0001) // =======================================================
(PID.TID 0000.0001) %MON exf_tsnumber                 =                188391
(PID.TID 0000.0001) %MON exf_time_sec                 =   2.2606920000000E+08
(PID.TID 0000.0001) %MON exf_ustress_max              =   2.6643756600720E-01
(PID.TID 0000.0001) %MON exf_ustress_min              =  -3.4997052988551E-02
(PID.TID 0000.0001) %MON exf_ustress_mean             =   7.3329342531295E-02
(PID.TID 0000.0001) %MON exf_ustress_sd               =   7.3842602232669E-02
(PID.TID 0000.0001) %MON exf_ustress_del2             =   7.4757804561496E-04
(PID.TID 0000.0001) %MON exf_vstress_max              =   1.6109165011006E-01
(PID.TID 0000.0001) %MON exf_vstress_min              =  -1.8222034902386E-01
(PID.TID 0000.0001) %MON exf_vstress_mean             =  -2.0631132668047E-02
(PID.TID 0000.0001) %MON exf_vstress_sd               =   7.3211966254102E-02
(PID.TID 0000.0001) %MON exf_vstress_del2             =   1.5401013110434E-03
(PID.TID 0000.0001) %MON exf_hflux_max                =   6.7432893639913E+01
(PID.TID 0000.0001) %MON exf_hflux_min                =  -1.6615980930424E+02
(PID.TID 0000.0001) %MON exf_hflux_mean               =  -6.9714119055000E+01
(PID.TID 0000.0001) %MON exf_hflux_sd                 =   5.6853041949970E+01
(PID.TID 0000.0001) %MON exf_hflux_del2               =   2.8126518485775E+00
(PID.TID 0000.0001) %MON exf_sflux_max                =   8.6944483618517E-09
(PID.TID 0000.0001) %MON exf_sflux_min                =  -2.8381828030682E-07
(PID.TID 0000.0001) %MON exf_sflux_mean               =  -9.4586430952336E-08
(PID.TID 0000.0001) %MON exf_sflux_sd                 =   6.9462001188138E-08
(PID.TID 0000.0001) %MON exf_sflux_del2               =   1.1467396018461E-09
(PID.TID 0000.0001) %MON exf_uwind_max                =   1.1855558846424E+01
(PID.TID 0000.0001) %MON exf_uwind_min                =  -2.6124820304632E+00
(PID.TID 0000.0001) %MON exf_uwind_mean               =   5.5086790349678E+00
(PID.TID 0000.0001) %MON exf_uwind_sd                 =   3.6289990068192E+00
(PID.TID 0000.0001) %MON exf_uwind_del2               =   3.0835737055361E-02
(PID.TID 0000.0001) %MON exf_vwind_max                =   1.0422203875122E+01
(PID.TID 0000.0001) %MON exf_vwind_min                =  -8.3659092023328E+00
(PID.TID 0000.0001) %MON exf_vwind_mean               =  -1.3563046866594E+00
(PID.TID 0000.0001) %MON exf_vwind_sd                 =   5.3563943941713E+00
(PID.TID 0000.0001) %MON exf_vwind_del2               =   1.3167064529780E-01
(PID.TID 0000.0001) %MON exf_wspeed_max               =   1.3600692202653E+01
(PID.TID 0000.0001) %MON exf_wspeed_min               =   3.9053947553676E+00
(PID.TID 0000.0001) %MON exf_wspeed_mean              =   8.2540173438864E+00
(PID.TID 0000.0001) %MON exf_wspeed_sd                =   2.4324677793497E+00
(PID.TID 0000.0001) %MON exf_wspeed_del2              =   2.2647211248407E-01
(PID.TID 0000.0001) %MON exf_atemp_max                =   2.8011646197968E+02
(PID.TID 0000.0001) %MON exf_atemp_min                =   2.6689778854721E+02
(PID.TID 0000.0001) %MON exf_atemp_mean               =   2.7521086262763E+02
(PID.TID 0000.0001) %MON exf_atemp_sd                 =   2.5793044730384E+00
(PID.TID 0000.0001) %MON exf_atemp_del2               =   5.7363306689754E-02
(PID.TID 0000.0001) %MON exf_aqh_max                  =   6.0534806083547E-03
(PID.TID 0000.0001) %MON exf_aqh_min                  =   2.3918565401378E-03
(PID.TID 0000.0001) %MON exf_aqh_mean                 =   4.3293265293925E-03
(PID.TID 0000.0001) %MON exf_aqh_sd                   =   7.4164934002979E-04
(PID.TID 0000.0001) %MON exf_aqh_del2                 =   8.9054458085798E-05
(PID.TID 0000.0001) %MON exf_lwflux_max               =   8.1841092037459E+01
(PID.TID 0000.0001) %MON exf_lwflux_min               =   6.8862870374988E+00
(PID.TID 0000.0001) %MON exf_lwflux_mean              =   4.0937621617728E+01
(PID.TID 0000.0001) %MON exf_lwflux_sd                =   1.9128574158891E+01
(PID.TID 0000.0001) %MON exf_lwflux_del2              =   1.2981376581634E+00
(PID.TID 0000.0001) %MON exf_precip_max               =   2.8536487438252E-07
(PID.TID 0000.0001) %MON exf_precip_min               =   5.1409160208117E-09
(PID.TID 0000.0001) %MON exf_precip_mean              =   9.0463277104576E-08
(PID.TID 0000.0001) %MON exf_precip_sd                =   6.8122833046837E-08
(PID.TID 0000.0001) %MON exf_precip_del2              =   3.5448650320271E-09
(PID.TID 0000.0001) %MON exf_snowprecip_max           =   0.0000000000000E+00
(PID.TID 0000.0001) %MON exf_snowprecip_min           =   0.0000000000000E+00
(PID.TID 0000.0001) %MON exf_snowprecip_mean          =   0.0000000000000E+00
(PID.TID 0000.0001) %MON exf_snowprecip_sd            =   0.0000000000000E+00
(PID.TID 0000.0001) %MON exf_snowprecip_del2          =   0.0000000000000E+00
(PID.TID 0000.0001) %MON exf_swflux_max               =  -8.3892029753665E+01
(PID.TID 0000.0001) %MON exf_swflux_min               =  -1.9705000172199E+02
(PID.TID 0000.0001) %MON exf_swflux_mean              =  -1.3107545842051E+02
(PID.TID 0000.0001) %MON exf_swflux_sd                =   2.9504542795955E+01
(PID.TID 0000.0001) %MON exf_swflux_del2              =   2.8250361112689E-01
(PID.TID 0000.0001) %MON exf_evap_max                 =   2.4516998354438E-08
(PID.TID 0000.0001) %MON exf_evap_min                 =  -1.1760126753350E-08
(PID.TID 0000.0001) %MON exf_evap_mean                =   5.0576203665315E-09
(PID.TID 0000.0001) %MON exf_evap_sd                  =   7.9653126246924E-09
(PID.TID 0000.0001) %MON exf_evap_del2                =   5.6810761907227E-10
(PID.TID 0000.0001) %MON exf_swdown_max               =   2.3182353143763E+02
(PID.TID 0000.0001) %MON exf_swdown_min               =   9.8696505592547E+01
(PID.TID 0000.0001) %MON exf_swdown_mean              =   1.5420642167118E+02
(PID.TID 0000.0001) %MON exf_swdown_sd                =   3.4711226818770E+01
(PID.TID 0000.0001) %MON exf_swdown_del2              =   3.2082003872681E+00
(PID.TID 0000.0001) %MON exf_lwdown_max               =   3.0624050778213E+02
(PID.TID 0000.0001) %MON exf_lwdown_min               =   2.4207456790914E+02
(PID.TID 0000.0001) %MON exf_lwdown_mean              =   2.7448694759829E+02
(PID.TID 0000.0001) %MON exf_lwdown_sd                =   1.5266515287309E+01
(PID.TID 0000.0001) %MON exf_lwdown_del2              =   6.1263076150681E+00
(PID.TID 0000.0001) %MON exf_apressure_max            =   0.0000000000000E+00
(PID.TID 0000.0001) %MON exf_apressure_min            =   0.0000000000000E+00
(PID.TID 0000.0001) %MON exf_apressure_mean           =   0.0000000000000E+00
(PID.TID 0000.0001) %MON exf_apressure_sd             =   0.0000000000000E+00
(PID.TID 0000.0001) %MON exf_apressure_del2           =   0.0000000000000E+00
(PID.TID 0000.0001) %MON exf_runoff_max               =   7.4975011851692E-08
(PID.TID 0000.0001) %MON exf_runoff_min               =   0.0000000000000E+00
(PID.TID 0000.0001) %MON exf_runoff_mean              =   9.1807742142917E-09
(PID.TID 0000.0001) %MON exf_runoff_sd                =   1.9697588363459E-08
(PID.TID 0000.0001) %MON exf_runoff_del2              =   2.8708460564743E-10
(PID.TID 0000.0001) %MON exf_climsss_max              =   3.4374135480701E+01
(PID.TID 0000.0001) %MON exf_climsss_min              =   2.9704156415226E+00
(PID.TID 0000.0001) %MON exf_climsss_mean             =   1.3184745137424E+01
(PID.TID 0000.0001) %MON exf_climsss_sd               =   1.0358308947803E+01
(PID.TID 0000.0001) %MON exf_climsss_del2             =   4.9106993420894E-02
(PID.TID 0000.0001) // =======================================================
(PID.TID 0000.0001) // End MONITOR EXF statistics
(PID.TID 0000.0001) // =======================================================
 cg2d: Sum(rhs),rhsMax =  -6.09364293622932E+02  2.80138740478823E-01
(PID.TID 0000.0001)                    cg2d_init_res =    1.71349681891816E-01
(PID.TID 0000.0001)                       cg2d_iters =    20
(PID.TID 0000.0001)                         cg2d_res =    5.90612355980967E-06
 tmptotP   19424869514257.2     
 tmptotN   181340548660978.     
 tmptotFe   33451062837.1782     
 tmptotSi   480206121607776.     
 tmptotP   19424869514257.3     
 tmptotN   181340548660978.     
 tmptotFe   33451125818.0937     
 tmptotSi   480206121607777.     
 tmptotP   19424869514257.3     
 tmptotN   181340548660978.     
 tmptotFe   33451125818.0937     
 tmptotSi   480206121607777.     
 tmptotP   19424869514257.2     
 tmptotN   181340548660979.     
 tmptotFe   33451151150.0765     
 tmptotSi   480206121607778.     
 tmptotP   19424869514257.2     
 tmptotN   181340548660979.     
 tmptotFe   33451151150.0765     
 tmptotSi   480206121607778.     
 tmptotP   19424882833709.6     
 tmptotN   181340761772218.     
 tmptotFe   33451186194.4947     
 tmptotSi   480207877028601.     
 tmptotP   19424882833709.6     
 tmptotN   181340761772218.     
 tmptotFe   33451186194.4947     
 tmptotSi   480207877028601.     
 tmptotP   19424882833709.5     
 tmptotN   181340761772216.     
 tmptotFe   33451196057.9827     
 tmptotSi   480207877028601.     
(PID.TID 0000.0001) // =======================================================
(PID.TID 0000.0001) // Begin MONITOR dynamic field statistics
(PID.TID 0000.0001) // =======================================================
(PID.TID 0000.0001) %MON time_tsnumber                =                188392
(PID.TID 0000.0001) %MON time_secondsf                =   2.2607040000000E+08
(PID.TID 0000.0001) %MON dynstat_eta_max              =   6.5892089265025E-01
(PID.TID 0000.0001) %MON dynstat_eta_min              =   0.0000000000000E+00
(PID.TID 0000.0001) %MON dynstat_eta_mean             =   3.6390622147872E-01
(PID.TID 0000.0001) %MON dynstat_eta_sd               =   1.5964343227838E-01
(PID.TID 0000.0001) %MON dynstat_eta_del2             =   6.9244719410469E-03
(PID.TID 0000.0001) %MON dynstat_uvel_max             =   3.8576009007000E-01
(PID.TID 0000.0001) %MON dynstat_uvel_min             =  -3.3822382987817E-01
(PID.TID 0000.0001) %MON dynstat_uvel_mean            =   5.9618108552418E-03
(PID.TID 0000.0001) %MON dynstat_uvel_sd              =   6.2351160373227E-02
(PID.TID 0000.0001) %MON dynstat_uvel_del2            =   1.8179255429560E-02
(PID.TID 0000.0001) %MON dynstat_vvel_max             =   2.6254437442800E-01
(PID.TID 0000.0001) %MON dynstat_vvel_min             =  -4.4626977118512E-01
(PID.TID 0000.0001) %MON dynstat_vvel_mean            =   2.8766328317566E-03
(PID.TID 0000.0001) %MON dynstat_vvel_sd              =   6.3614852666493E-02
(PID.TID 0000.0001) %MON dynstat_vvel_del2            =   1.9790674344868E-02
(PID.TID 0000.0001) %MON dynstat_wvel_max             =   4.9237415551012E-04
(PID.TID 0000.0001) %MON dynstat_wvel_min             =  -5.0582731875954E-04
(PID.TID 0000.0001) %MON dynstat_wvel_mean            =  -2.5752885797358E-06
(PID.TID 0000.0001) %MON dynstat_wvel_sd              =   7.3862255754681E-05
(PID.TID 0000.0001) %MON dynstat_wvel_del2            =   3.0399707364444E-05
(PID.TID 0000.0001) %MON dynstat_theta_max            =   7.9705208983779E+00
(PID.TID 0000.0001) %MON dynstat_theta_min            =  -1.6137818593668E+00
(PID.TID 0000.0001) %MON dynstat_theta_mean           =   3.8285026656216E+00
(PID.TID 0000.0001) %MON dynstat_theta_sd             =   2.2079975774835E+00
(PID.TID 0000.0001) %MON dynstat_theta_del2           =   1.1593575534635E-01
(PID.TID 0000.0001) %MON dynstat_salt_max             =   3.4929490730411E+01
(PID.TID 0000.0001) %MON dynstat_salt_min             =   5.6522777718868E+00
(PID.TID 0000.0001) %MON dynstat_salt_mean            =   1.5735344643417E+01
(PID.TID 0000.0001) %MON dynstat_salt_sd              =   1.2130024533333E+01
(PID.TID 0000.0001) %MON dynstat_salt_del2            =   5.1633201705055E-02
(PID.TID 0000.0001) %MON extforcing_qnet_max          =   2.4346530190312E+02
(PID.TID 0000.0001) %MON extforcing_qnet_min          =  -8.8012371221497E+02
(PID.TID 0000.0001) %MON extforcing_qnet_mean         =  -5.3113087963352E+01
(PID.TID 0000.0001) %MON extforcing_qnet_sd           =   7.9679861842663E+01
(PID.TID 0000.0001) %MON extforcing_qnet_del2         =   1.4192307476009E+01
(PID.TID 0000.0001) %MON extforcing_qsw_max           =   0.0000000000000E+00
(PID.TID 0000.0001) %MON extforcing_qsw_min           =  -1.9705000172199E+02
(PID.TID 0000.0001) %MON extforcing_qsw_mean          =  -1.0839908232765E+02
(PID.TID 0000.0001) %MON extforcing_qsw_sd            =   6.0366404469633E+01
(PID.TID 0000.0001) %MON extforcing_qsw_del2          =   2.2197722293541E+00
(PID.TID 0000.0001) %MON extforcing_empmr_max         =   2.4166369865749E-03
(PID.TID 0000.0001) %MON extforcing_empmr_min         =  -9.8326371473828E-04
(PID.TID 0000.0001) %MON extforcing_empmr_mean        =  -9.2197223625205E-05
(PID.TID 0000.0001) %MON extforcing_empmr_sd          =   1.8247129168565E-04
(PID.TID 0000.0001) %MON extforcing_empmr_del2        =   3.9882037158364E-05
(PID.TID 0000.0001) %MON advcfl_uvel_max              =   2.2783440860794E-02
(PID.TID 0000.0001) %MON advcfl_vvel_max              =   3.2781073983595E-02
(PID.TID 0000.0001) %MON advcfl_wvel_max              =   5.9084898661215E-02
(PID.TID 0000.0001) %MON advcfl_W_hf_max              =   5.9084898661215E-02
(PID.TID 0000.0001) %MON pe_b_mean                    =   1.3396350174347E-02
(PID.TID 0000.0001) %MON ke_max                       =   1.0608546066585E-01
(PID.TID 0000.0001) %MON ke_mean                      =   3.2223700008970E-03
(PID.TID 0000.0001) %MON ke_vol                       =   2.8199008699639E+13
(PID.TID 0000.0001) %MON vort_r_min                   =  -3.5802491242272E-05
(PID.TID 0000.0001) %MON vort_r_max                   =   3.3341552585535E-05
(PID.TID 0000.0001) %MON vort_a_mean                  =   1.2397552845231E-04
(PID.TID 0000.0001) %MON vort_a_sd                    =   6.2806348876672E-06
(PID.TID 0000.0001) %MON vort_p_mean                  =   1.7325640948570E-04
(PID.TID 0000.0001) %MON vort_p_sd                    =   1.0959233960305E-04
(PID.TID 0000.0001) %MON surfExpan_theta_mean         =  -1.5261316136771E-07
(PID.TID 0000.0001) %MON surfExpan_salt_mean          =   1.5628573273715E-06
(PID.TID 0000.0001) // =======================================================
(PID.TID 0000.0001) // End MONITOR dynamic field statistics
(PID.TID 0000.0001) // =======================================================
(PID.TID 0000.0001) // =======================================================
(PID.TID 0000.0001) // Begin MONITOR SEAICE statistics
(PID.TID 0000.0001) // =======================================================
(PID.TID 0000.0001) %MON seaice_tsnumber              =                188392
(PID.TID 0000.0001) %MON seaice_time_sec              =   2.2607040000000E+08
(PID.TID 0000.0001) %MON seaice_area_max              =   1.0000000000000E+00
(PID.TID 0000.0001) %MON seaice_area_min              =   0.0000000000000E+00
(PID.TID 0000.0001) %MON seaice_area_mean             =   2.2063446881528E-01
(PID.TID 0000.0001) %MON seaice_area_sd               =   3.8260238144145E-01
(PID.TID 0000.0001) %MON seaice_area_del2             =   1.9397103188688E-02
(PID.TID 0000.0001) %MON seaice_heff_max              =   1.0117965843332E+00
(PID.TID 0000.0001) %MON seaice_heff_min              =   0.0000000000000E+00
(PID.TID 0000.0001) %MON seaice_heff_mean             =   1.2224916287605E-01
(PID.TID 0000.0001) %MON seaice_heff_sd               =   2.4151941756523E-01
(PID.TID 0000.0001) %MON seaice_heff_del2             =   1.0524733623680E-02
(PID.TID 0000.0001) %MON seaice_hsnow_max             =   2.7594325946340E-01
(PID.TID 0000.0001) %MON seaice_hsnow_min             =   0.0000000000000E+00
(PID.TID 0000.0001) %MON seaice_hsnow_mean            =   3.0096539997176E-02
(PID.TID 0000.0001) %MON seaice_hsnow_sd              =   6.3728423834129E-02
(PID.TID 0000.0001) %MON seaice_hsnow_del2            =   1.8933999001774E-03
(PID.TID 0000.0001) // =======================================================
(PID.TID 0000.0001) // End MONITOR SEAICE statistics
(PID.TID 0000.0001) // =======================================================
(PID.TID 0000.0001) // =======================================================
(PID.TID 0000.0001) // Begin MONITOR ptracer field statistics
(PID.TID 0000.0001) // =======================================================
(PID.TID 0000.0001) %MON trcstat_ptracer01_max        =   4.3205418600588E+00
(PID.TID 0000.0001) %MON trcstat_ptracer01_min        =   3.8006188984796E-02
(PID.TID 0000.0001) %MON trcstat_ptracer01_mean       =   5.8698404901552E-01
(PID.TID 0000.0001) %MON trcstat_ptracer01_sd         =   5.1388396198423E-01
(PID.TID 0000.0001) %MON trcstat_ptracer01_del2       =   1.3862133555423E-02
(PID.TID 0000.0001) %MON trcstat_ptracer02_max        =   4.4159667984381E+01
(PID.TID 0000.0001) %MON trcstat_ptracer02_min        =   1.4930485369306E-02
(PID.TID 0000.0001) %MON trcstat_ptracer02_mean       =   4.6208456618624E+00
(PID.TID 0000.0001) %MON trcstat_ptracer02_sd         =   6.6640632603156E+00
(PID.TID 0000.0001) %MON trcstat_ptracer02_del2       =   2.0322412739796E-01
(PID.TID 0000.0001) %MON trcstat_ptracer03_max        =   1.3876603116415E-03
(PID.TID 0000.0001) %MON trcstat_ptracer03_min        =   5.8941235475107E-04
(PID.TID 0000.0001) %MON trcstat_ptracer03_mean       =   1.0857411490099E-03
(PID.TID 0000.0001) %MON trcstat_ptracer03_sd         =   1.4464632915437E-04
(PID.TID 0000.0001) %MON trcstat_ptracer03_del2       =   9.1850584484413E-06
(PID.TID 0000.0001) %MON trcstat_ptracer04_max        =   1.5669306819051E+02
(PID.TID 0000.0001) %MON trcstat_ptracer04_min        =   6.3397102239742E-02
(PID.TID 0000.0001) %MON trcstat_ptracer04_mean       =   1.4507342369506E+01
(PID.TID 0000.0001) %MON trcstat_ptracer04_sd         =   1.6977343143273E+01
(PID.TID 0000.0001) %MON trcstat_ptracer04_del2       =   4.0004422681310E-01
(PID.TID 0000.0001) %MON trcstat_ptracer05_max        =   2.8338360840562E-01
(PID.TID 0000.0001) %MON trcstat_ptracer05_min        =   8.3365862003781E-08
(PID.TID 0000.0001) %MON trcstat_ptracer05_mean       =   5.9551474148189E-02
(PID.TID 0000.0001) %MON trcstat_ptracer05_sd         =   5.7231521905629E-02
(PID.TID 0000.0001) %MON trcstat_ptracer05_del2       =   2.5847262928445E-03
(PID.TID 0000.0001) %MON trcstat_ptracer06_max        =   4.5341377344899E+00
(PID.TID 0000.0001) %MON trcstat_ptracer06_min        =   1.3338537920605E-06
(PID.TID 0000.0001) %MON trcstat_ptracer06_mean       =   9.5282358637103E-01
(PID.TID 0000.0001) %MON trcstat_ptracer06_sd         =   9.1570435049007E-01
(PID.TID 0000.0001) %MON trcstat_ptracer06_del2       =   4.1355620685512E-02
(PID.TID 0000.0001) %MON trcstat_ptracer07_max        =   2.8338360840562E-04
(PID.TID 0000.0001) %MON trcstat_ptracer07_min        =   8.3365862003784E-11
(PID.TID 0000.0001) %MON trcstat_ptracer07_mean       =   5.9551474143085E-05
(PID.TID 0000.0001) %MON trcstat_ptracer07_sd         =   5.7231521967910E-05
(PID.TID 0000.0001) %MON trcstat_ptracer07_del2       =   2.5847263087422E-06
(PID.TID 0000.0001) %MON trcstat_ptracer08_max        =   7.1922686552496E-03
(PID.TID 0000.0001) %MON trcstat_ptracer08_min        =   6.8898336020757E-33
(PID.TID 0000.0001) %MON trcstat_ptracer08_mean       =   5.1910797986972E-04
(PID.TID 0000.0001) %MON trcstat_ptracer08_sd         =   1.1977279910663E-03
(PID.TID 0000.0001) %MON trcstat_ptracer08_del2       =   3.3644271217732E-05
(PID.TID 0000.0001) %MON trcstat_ptracer09_max        =   1.1507629848399E-01
(PID.TID 0000.0001) %MON trcstat_ptracer09_min        =   1.1023733763321E-31
(PID.TID 0000.0001) %MON trcstat_ptracer09_mean       =   8.3057276779155E-03
(PID.TID 0000.0001) %MON trcstat_ptracer09_sd         =   1.9163647857061E-02
(PID.TID 0000.0001) %MON trcstat_ptracer09_del2       =   5.3830833948372E-04
(PID.TID 0000.0001) %MON trcstat_ptracer10_max        =   7.1922687577845E-06
(PID.TID 0000.0001) %MON trcstat_ptracer10_min        =   6.8898336021042E-36
(PID.TID 0000.0001) %MON trcstat_ptracer10_mean       =   5.1910798091876E-07
(PID.TID 0000.0001) %MON trcstat_ptracer10_sd         =   1.1977279934385E-06
(PID.TID 0000.0001) %MON trcstat_ptracer10_del2       =   3.3644271312702E-08
(PID.TID 0000.0001) %MON trcstat_ptracer11_max        =   8.8669762222931E-03
(PID.TID 0000.0001) %MON trcstat_ptracer11_min        =   1.9418879311273E-32
(PID.TID 0000.0001) %MON trcstat_ptracer11_mean       =   3.6908521011907E-04
(PID.TID 0000.0001) %MON trcstat_ptracer11_sd         =   1.3638264068701E-03
(PID.TID 0000.0001) %MON trcstat_ptracer11_del2       =   3.7866166464683E-05
(PID.TID 0000.0001) %MON trcstat_ptracer12_max        =   8.4258948013402E-02
(PID.TID 0000.0001) %MON trcstat_ptracer12_min        =   9.1178758641718E-23
(PID.TID 0000.0001) %MON trcstat_ptracer12_mean       =   1.7708553251537E-03
(PID.TID 0000.0001) %MON trcstat_ptracer12_sd         =   7.4847883691080E-03
(PID.TID 0000.0001) %MON trcstat_ptracer12_del2       =   1.9297854992654E-04
(PID.TID 0000.0001) %MON trcstat_ptracer13_max        =   1.3481431682144E+00
(PID.TID 0000.0001) %MON trcstat_ptracer13_min        =   1.4588601382675E-21
(PID.TID 0000.0001) %MON trcstat_ptracer13_mean       =   2.8333685202459E-02
(PID.TID 0000.0001) %MON trcstat_ptracer13_sd         =   1.1975661390573E-01
(PID.TID 0000.0001) %MON trcstat_ptracer13_del2       =   3.0876567988246E-03
(PID.TID 0000.0001) %MON trcstat_ptracer14_max        =   8.4258948065625E-05
(PID.TID 0000.0001) %MON trcstat_ptracer14_min        =   9.1178758641703E-26
(PID.TID 0000.0001) %MON trcstat_ptracer14_mean       =   1.7708553264817E-06
(PID.TID 0000.0001) %MON trcstat_ptracer14_sd         =   7.4847883726372E-06
(PID.TID 0000.0001) %MON trcstat_ptracer14_del2       =   1.9297854999269E-07
(PID.TID 0000.0001) %MON trcstat_ptracer15_max        =   9.4770218514614E-01
(PID.TID 0000.0001) %MON trcstat_ptracer15_min        =   9.4640857442010E-22
(PID.TID 0000.0001) %MON trcstat_ptracer15_mean       =   1.8802970768095E-02
(PID.TID 0000.0001) %MON trcstat_ptracer15_sd         =   9.1824804004654E-02
(PID.TID 0000.0001) %MON trcstat_ptracer15_del2       =   2.6677983178614E-03
(PID.TID 0000.0001) %MON trcstat_ptracer16_max        =   9.9343478308450E-01
(PID.TID 0000.0001) %MON trcstat_ptracer16_min        =   3.3845646398565E-09
(PID.TID 0000.0001) %MON trcstat_ptracer16_mean       =   2.0818366383694E-02
(PID.TID 0000.0001) %MON trcstat_ptracer16_sd         =   4.8932027299395E-02
(PID.TID 0000.0001) %MON trcstat_ptracer16_del2       =   3.4941133049800E-03
(PID.TID 0000.0001) %MON trcstat_ptracer17_max        =   1.5894956529352E+01
(PID.TID 0000.0001) %MON trcstat_ptracer17_min        =   5.4153034237704E-08
(PID.TID 0000.0001) %MON trcstat_ptracer17_mean       =   3.3309386213911E-01
(PID.TID 0000.0001) %MON trcstat_ptracer17_sd         =   7.8291243679032E-01
(PID.TID 0000.0001) %MON trcstat_ptracer17_del2       =   5.5905812879681E-02
(PID.TID 0000.0001) %MON trcstat_ptracer18_max        =   9.9343478308450E-04
(PID.TID 0000.0001) %MON trcstat_ptracer18_min        =   3.3845646398565E-12
(PID.TID 0000.0001) %MON trcstat_ptracer18_mean       =   2.0818366387825E-05
(PID.TID 0000.0001) %MON trcstat_ptracer18_sd         =   4.8932027293754E-05
(PID.TID 0000.0001) %MON trcstat_ptracer18_del2       =   3.4941133064549E-06
(PID.TID 0000.0001) %MON trcstat_ptracer19_max        =   3.0492833527142E+02
(PID.TID 0000.0001) %MON trcstat_ptracer19_min        =   9.1444637143245E-08
(PID.TID 0000.0001) %MON trcstat_ptracer19_mean       =   2.2601161999287E+00
(PID.TID 0000.0001) %MON trcstat_ptracer19_sd         =   1.2386622802777E+01
(PID.TID 0000.0001) %MON trcstat_ptracer19_del2       =   3.9054852019609E-01
(PID.TID 0000.0001) %MON trcstat_ptracer20_max        =   1.9605152005507E+00
(PID.TID 0000.0001) %MON trcstat_ptracer20_min        =   2.2890547934977E-07
(PID.TID 0000.0001) %MON trcstat_ptracer20_mean       =   1.7649148802485E-02
(PID.TID 0000.0001) %MON trcstat_ptracer20_sd         =   8.2171800696108E-02
(PID.TID 0000.0001) %MON trcstat_ptracer20_del2       =   2.9234612537688E-03
(PID.TID 0000.0001) %MON trcstat_ptracer21_max        =   2.3329408089544E+00
(PID.TID 0000.0001) %MON trcstat_ptracer21_min        =   3.0124103332642E-05
(PID.TID 0000.0001) %MON trcstat_ptracer21_mean       =   1.6310726872766E-01
(PID.TID 0000.0001) %MON trcstat_ptracer21_sd         =   1.9123710139471E-01
(PID.TID 0000.0001) %MON trcstat_ptracer21_del2       =   1.0654674439351E-02
(PID.TID 0000.0001) %MON trcstat_ptracer22_max        =   1.5395441407568E-04
(PID.TID 0000.0001) %MON trcstat_ptracer22_min        =  -2.1068568840795E-19
(PID.TID 0000.0001) %MON trcstat_ptracer22_mean       =   4.1102159455425E-07
(PID.TID 0000.0001) %MON trcstat_ptracer22_sd         =   6.4305615817450E-06
(PID.TID 0000.0001) %MON trcstat_ptracer22_del2       =   1.2845590336581E-07
(PID.TID 0000.0001) %MON trcstat_ptracer23_max        =   5.1928147811380E-04
(PID.TID 0000.0001) %MON trcstat_ptracer23_min        =  -2.2601834133178E-24
(PID.TID 0000.0001) %MON trcstat_ptracer23_mean       =   8.2338703454014E-06
(PID.TID 0000.0001) %MON trcstat_ptracer23_sd         =   4.1247510794905E-05
(PID.TID 0000.0001) %MON trcstat_ptracer23_del2       =   9.7773982101520E-07
(PID.TID 0000.0001) %MON trcstat_ptracer24_max        =   1.5395441407572E-04
(PID.TID 0000.0001) %MON trcstat_ptracer24_min        =   5.7059170242319E-51
(PID.TID 0000.0001) %MON trcstat_ptracer24_mean       =   4.1115369343955E-07
(PID.TID 0000.0001) %MON trcstat_ptracer24_sd         =   6.4305531420051E-06
(PID.TID 0000.0001) %MON trcstat_ptracer24_del2       =   1.2846689912133E-07
(PID.TID 0000.0001) %MON trcstat_ptracer25_max        =   1.5476484313482E-04
(PID.TID 0000.0001) %MON trcstat_ptracer25_min        =   8.0731422285832E-34
(PID.TID 0000.0001) %MON trcstat_ptracer25_mean       =   3.2174661211001E-06
(PID.TID 0000.0001) %MON trcstat_ptracer25_sd         =   1.3143361350517E-05
(PID.TID 0000.0001) %MON trcstat_ptracer25_del2       =   7.3734640478790E-07
(PID.TID 0000.0001) %MON trcstat_ptracer26_max        =   1.5485888801352E-04
(PID.TID 0000.0001) %MON trcstat_ptracer26_min        =  -2.6858794070124E-17
(PID.TID 0000.0001) %MON trcstat_ptracer26_mean       =   3.9538947094073E-07
(PID.TID 0000.0001) %MON trcstat_ptracer26_sd         =   6.4322982711773E-06
(PID.TID 0000.0001) %MON trcstat_ptracer26_del2       =   1.2937974156362E-07
(PID.TID 0000.0001) %MON trcstat_ptracer27_max        =   9.5982066220504E-03
(PID.TID 0000.0001) %MON trcstat_ptracer27_min        =   1.2852580166167E-19
(PID.TID 0000.0001) %MON trcstat_ptracer27_mean       =   2.5493254159003E-04
(PID.TID 0000.0001) %MON trcstat_ptracer27_sd         =   6.7658498931888E-04
(PID.TID 0000.0001) %MON trcstat_ptracer27_del2       =   4.2587030129114E-05
(PID.TID 0000.0001) %MON trcstat_ptracer28_max        =   9.1988269966670E-02
(PID.TID 0000.0001) %MON trcstat_ptracer28_min        =   6.7039062921614E-24
(PID.TID 0000.0001) %MON trcstat_ptracer28_mean       =   1.7052304509905E-03
(PID.TID 0000.0001) %MON trcstat_ptracer28_sd         =   5.9137218300194E-03
(PID.TID 0000.0001) %MON trcstat_ptracer28_del2       =   3.0664974197499E-04
(PID.TID 0000.0001) %MON trcstat_ptracer29_max        =   1.0580659168003E-03
(PID.TID 0000.0001) %MON trcstat_ptracer29_min        =   9.9999999999874E-51
(PID.TID 0000.0001) %MON trcstat_ptracer29_mean       =   3.3732470207001E-06
(PID.TID 0000.0001) %MON trcstat_ptracer29_sd         =   2.4937714352856E-05
(PID.TID 0000.0001) %MON trcstat_ptracer29_del2       =   4.7164603564419E-07
(PID.TID 0000.0001) %MON trcstat_ptracer30_max        =   1.4217458228073E-02
(PID.TID 0000.0001) %MON trcstat_ptracer30_min        =   1.2316186432018E-29
(PID.TID 0000.0001) %MON trcstat_ptracer30_mean       =   1.8267293103525E-04
(PID.TID 0000.0001) %MON trcstat_ptracer30_sd         =   9.3846647490147E-04
(PID.TID 0000.0001) %MON trcstat_ptracer30_del2       =   3.4840373192870E-05
(PID.TID 0000.0001) %MON trcstat_ptracer31_max        =   1.5531488225282E-04
(PID.TID 0000.0001) %MON trcstat_ptracer31_min        =   1.2549398103779E-14
(PID.TID 0000.0001) %MON trcstat_ptracer31_mean       =   4.0995702199273E-07
(PID.TID 0000.0001) %MON trcstat_ptracer31_sd         =   6.4880712371955E-06
(PID.TID 0000.0001) %MON trcstat_ptracer31_del2       =   1.2958167079208E-07
(PID.TID 0000.0001) %MON trcstat_ptracer32_max        =   1.5409286515611E-04
(PID.TID 0000.0001) %MON trcstat_ptracer32_min        =  -5.4490588694353E-19
(PID.TID 0000.0001) %MON trcstat_ptracer32_mean       =   4.0367248965595E-07
(PID.TID 0000.0001) %MON trcstat_ptracer32_sd         =   6.4270376253410E-06
(PID.TID 0000.0001) %MON trcstat_ptracer32_del2       =   1.2860362263272E-07
(PID.TID 0000.0001) %MON trcstat_ptracer33_max        =   1.5395315348819E-04
(PID.TID 0000.0001) %MON trcstat_ptracer33_min        =  -2.0618327470199E-21
(PID.TID 0000.0001) %MON trcstat_ptracer33_mean       =   3.9268010366572E-07
(PID.TID 0000.0001) %MON trcstat_ptracer33_sd         =   6.3946576522802E-06
(PID.TID 0000.0001) %MON trcstat_ptracer33_del2       =   1.2887132793868E-07
(PID.TID 0000.0001) %MON trcstat_ptracer34_max        =   1.5401754642846E-04
(PID.TID 0000.0001) %MON trcstat_ptracer34_min        =   5.6889231289683E-51
(PID.TID 0000.0001) %MON trcstat_ptracer34_mean       =   4.1105660686697E-07
(PID.TID 0000.0001) %MON trcstat_ptracer34_sd         =   6.4311460888551E-06
(PID.TID 0000.0001) %MON trcstat_ptracer34_del2       =   1.2841492755717E-07
(PID.TID 0000.0001) %MON trcstat_ptracer35_max        =   1.5448402755483E-04
(PID.TID 0000.0001) %MON trcstat_ptracer35_min        =  -2.5974251030889E-17
(PID.TID 0000.0001) %MON trcstat_ptracer35_mean       =   3.9497414143563E-07
(PID.TID 0000.0001) %MON trcstat_ptracer35_sd         =   6.4227072088506E-06
(PID.TID 0000.0001) %MON trcstat_ptracer35_del2       =   1.2924529630676E-07
(PID.TID 0000.0001) %MON trcstat_ptracer36_max        =   1.5393710481749E-04
(PID.TID 0000.0001) %MON trcstat_ptracer36_min        =  -5.8860784472533E-19
(PID.TID 0000.0001) %MON trcstat_ptracer36_mean       =   4.1082220977238E-07
(PID.TID 0000.0001) %MON trcstat_ptracer36_sd         =   6.4294297529871E-06
(PID.TID 0000.0001) %MON trcstat_ptracer36_del2       =   1.2844930545430E-07
(PID.TID 0000.0001) %MON trcstat_ptracer37_max        =   1.5519203798964E-04
(PID.TID 0000.0001) %MON trcstat_ptracer37_min        =  -3.8812698135546E-36
(PID.TID 0000.0001) %MON trcstat_ptracer37_mean       =   4.1911147214959E-07
(PID.TID 0000.0001) %MON trcstat_ptracer37_sd         =   6.4931389775027E-06
(PID.TID 0000.0001) %MON trcstat_ptracer37_del2       =   1.2957926703484E-07
(PID.TID 0000.0001) %MON trcstat_ptracer38_max        =   1.5402699148391E-04
(PID.TID 0000.0001) %MON trcstat_ptracer38_min        =   9.8830152649509E-51
(PID.TID 0000.0001) %MON trcstat_ptracer38_mean       =   4.6470896909718E-07
(PID.TID 0000.0001) %MON trcstat_ptracer38_sd         =   6.5922668522196E-06
(PID.TID 0000.0001) %MON trcstat_ptracer38_del2       =   1.3032074623639E-07
(PID.TID 0000.0001) %MON trcstat_ptracer39_max        =   2.8142327923728E-03
(PID.TID 0000.0001) %MON trcstat_ptracer39_min        =   7.4217719154587E-33
(PID.TID 0000.0001) %MON trcstat_ptracer39_mean       =   1.9492086917071E-05
(PID.TID 0000.0001) %MON trcstat_ptracer39_sd         =   1.3411887684192E-04
(PID.TID 0000.0001) %MON trcstat_ptracer39_del2       =   3.4851781253745E-06
(PID.TID 0000.0001) %MON trcstat_ptracer40_max        =   1.5393710481751E-04
(PID.TID 0000.0001) %MON trcstat_ptracer40_min        =  -7.0886205306079E-19
(PID.TID 0000.0001) %MON trcstat_ptracer40_mean       =   4.1082220808495E-07
(PID.TID 0000.0001) %MON trcstat_ptracer40_sd         =   6.4294297530975E-06
(PID.TID 0000.0001) %MON trcstat_ptracer40_del2       =   1.2844930542255E-07
(PID.TID 0000.0001) %MON trcstat_ptracer41_max        =   1.5383455223486E-04
(PID.TID 0000.0001) %MON trcstat_ptracer41_min        =  -4.8650340804781E-18
(PID.TID 0000.0001) %MON trcstat_ptracer41_mean       =   4.1122508190555E-07
(PID.TID 0000.0001) %MON trcstat_ptracer41_sd         =   6.4310739635033E-06
(PID.TID 0000.0001) %MON trcstat_ptracer41_del2       =   1.2836794540623E-07
(PID.TID 0000.0001) %MON trcstat_ptracer42_max        =   1.5455616360864E-04
(PID.TID 0000.0001) %MON trcstat_ptracer42_min        =   7.4203393074962E-17
(PID.TID 0000.0001) %MON trcstat_ptracer42_mean       =   3.9560119483769E-07
(PID.TID 0000.0001) %MON trcstat_ptracer42_sd         =   6.4246088605243E-06
(PID.TID 0000.0001) %MON trcstat_ptracer42_del2       =   1.2950587512184E-07
(PID.TID 0000.0001) %MON trcstat_ptracer43_max        =   1.0577208642995E-03
(PID.TID 0000.0001) %MON trcstat_ptracer43_min        =   5.4091566009763E-14
(PID.TID 0000.0001) %MON trcstat_ptracer43_mean       =   2.5170187326663E-05
(PID.TID 0000.0001) %MON trcstat_ptracer43_sd         =   8.8025325404629E-05
(PID.TID 0000.0001) %MON trcstat_ptracer43_del2       =   4.6293880451460E-06
(PID.TID 0000.0001) %MON trcstat_ptracer44_max        =   1.5393710481745E-04
(PID.TID 0000.0001) %MON trcstat_ptracer44_min        =  -1.3558520158725E-31
(PID.TID 0000.0001) %MON trcstat_ptracer44_mean       =   4.1084130933240E-07
(PID.TID 0000.0001) %MON trcstat_ptracer44_sd         =   6.4294285341069E-06
(PID.TID 0000.0001) %MON trcstat_ptracer44_del2       =   1.2845042715175E-07
(PID.TID 0000.0001) %MON trcstat_ptracer45_max        =   1.5468518565416E-04
(PID.TID 0000.0001) %MON trcstat_ptracer45_min        =   1.4103338058305E-50
(PID.TID 0000.0001) %MON trcstat_ptracer45_mean       =   6.6346368253653E-07
(PID.TID 0000.0001) %MON trcstat_ptracer45_sd         =   7.3498224326181E-06
(PID.TID 0000.0001) %MON trcstat_ptracer45_del2       =   1.5185846376010E-07
(PID.TID 0000.0001) %MON trcstat_ptracer46_max        =   1.5484855165810E-04
(PID.TID 0000.0001) %MON trcstat_ptracer46_min        =  -6.1876890776486E-21
(PID.TID 0000.0001) %MON trcstat_ptracer46_mean       =   4.0648247287589E-07
(PID.TID 0000.0001) %MON trcstat_ptracer46_sd         =   6.4636606543652E-06
(PID.TID 0000.0001) %MON trcstat_ptracer46_del2       =   1.2906218065829E-07
(PID.TID 0000.0001) %MON trcstat_ptracer47_max        =   1.5395441407572E-04
(PID.TID 0000.0001) %MON trcstat_ptracer47_min        =  -5.1787947520443E-19
(PID.TID 0000.0001) %MON trcstat_ptracer47_mean       =   4.1102113571233E-07
(PID.TID 0000.0001) %MON trcstat_ptracer47_sd         =   6.4305616112243E-06
(PID.TID 0000.0001) %MON trcstat_ptracer47_del2       =   1.2845588376926E-07
(PID.TID 0000.0001) %MON trcstat_ptracer48_max        =   1.5395441407572E-04
(PID.TID 0000.0001) %MON trcstat_ptracer48_min        =  -7.7571447953320E-35
(PID.TID 0000.0001) %MON trcstat_ptracer48_mean       =   4.1102158266054E-07
(PID.TID 0000.0001) %MON trcstat_ptracer48_sd         =   6.4305615825099E-06
(PID.TID 0000.0001) %MON trcstat_ptracer48_del2       =   1.2845589882959E-07
(PID.TID 0000.0001) %MON trcstat_ptracer49_max        =   1.5395441407572E-04
(PID.TID 0000.0001) %MON trcstat_ptracer49_min        =   7.8258998744656E-51
(PID.TID 0000.0001) %MON trcstat_ptracer49_mean       =   4.2608546088047E-07
(PID.TID 0000.0001) %MON trcstat_ptracer49_sd         =   6.4298574023033E-06
(PID.TID 0000.0001) %MON trcstat_ptracer49_del2       =   1.3138874343753E-07
(PID.TID 0000.0001) %MON trcstat_ptracer50_max        =   1.5403592159075E-04
(PID.TID 0000.0001) %MON trcstat_ptracer50_min        =   9.6059451250813E-51
(PID.TID 0000.0001) %MON trcstat_ptracer50_mean       =   4.6682193761242E-07
(PID.TID 0000.0001) %MON trcstat_ptracer50_sd         =   6.6643218300641E-06
(PID.TID 0000.0001) %MON trcstat_ptracer50_del2       =   1.2436350515322E-07
(PID.TID 0000.0001) %MON trcstat_ptracer51_max        =   1.5415062128880E-04
(PID.TID 0000.0001) %MON trcstat_ptracer51_min        =   1.0000000772545E-50
(PID.TID 0000.0001) %MON trcstat_ptracer51_mean       =   4.2731911233020E-07
(PID.TID 0000.0001) %MON trcstat_ptracer51_sd         =   6.4391375894234E-06
(PID.TID 0000.0001) %MON trcstat_ptracer51_del2       =   1.2960520910610E-07
(PID.TID 0000.0001) %MON trcstat_ptracer52_max        =   1.5490886770335E-04
(PID.TID 0000.0001) %MON trcstat_ptracer52_min        =   4.5032889383191E-50
(PID.TID 0000.0001) %MON trcstat_ptracer52_mean       =   4.4254390065304E-07
(PID.TID 0000.0001) %MON trcstat_ptracer52_sd         =   6.6094462777829E-06
(PID.TID 0000.0001) %MON trcstat_ptracer52_del2       =   1.2690674808491E-07
(PID.TID 0000.0001) %MON trcstat_ptracer53_max        =   1.5395315348821E-04
(PID.TID 0000.0001) %MON trcstat_ptracer53_min        =  -2.5744404070613E-17
(PID.TID 0000.0001) %MON trcstat_ptracer53_mean       =   3.9268010347141E-07
(PID.TID 0000.0001) %MON trcstat_ptracer53_sd         =   6.3946576523114E-06
(PID.TID 0000.0001) %MON trcstat_ptracer53_del2       =   1.2887132792790E-07
(PID.TID 0000.0001) %MON trcstat_ptracer54_max        =   1.5395441407573E-04
(PID.TID 0000.0001) %MON trcstat_ptracer54_min        =  -4.2532941173473E-18
(PID.TID 0000.0001) %MON trcstat_ptracer54_mean       =   4.1102111644918E-07
(PID.TID 0000.0001) %MON trcstat_ptracer54_sd         =   6.4305616124898E-06
(PID.TID 0000.0001) %MON trcstat_ptracer54_del2       =   1.2845588375188E-07
(PID.TID 0000.0001) %MON trcstat_ptracer55_max        =   1.5395315348821E-04
(PID.TID 0000.0001) %MON trcstat_ptracer55_min        =  -2.1330221305524E-23
(PID.TID 0000.0001) %MON trcstat_ptracer55_mean       =   3.9268010382508E-07
(PID.TID 0000.0001) %MON trcstat_ptracer55_sd         =   6.3946576522894E-06
(PID.TID 0000.0001) %MON trcstat_ptracer55_del2       =   1.2887132793431E-07
(PID.TID 0000.0001) %MON trcstat_ptracer56_max        =   2.9241916361463E-02
(PID.TID 0000.0001) %MON trcstat_ptracer56_min        =   4.4611492450339E-41
(PID.TID 0000.0001) %MON trcstat_ptracer56_mean       =   3.4254418621809E-04
(PID.TID 0000.0001) %MON trcstat_ptracer56_sd         =   1.8324539361239E-03
(PID.TID 0000.0001) %MON trcstat_ptracer56_del2       =   4.6433624848405E-05
(PID.TID 0000.0001) %MON trcstat_ptracer57_max        =   5.3038676079050E-04
(PID.TID 0000.0001) %MON trcstat_ptracer57_min        =   1.6274201685091E-44
(PID.TID 0000.0001) %MON trcstat_ptracer57_mean       =   1.2396084290059E-06
(PID.TID 0000.0001) %MON trcstat_ptracer57_sd         =   1.1309000811174E-05
(PID.TID 0000.0001) %MON trcstat_ptracer57_del2       =   2.5828782860604E-07
(PID.TID 0000.0001) %MON trcstat_ptracer58_max        =   1.5536474438423E-04
(PID.TID 0000.0001) %MON trcstat_ptracer58_min        =   9.9333044476382E-34
(PID.TID 0000.0001) %MON trcstat_ptracer58_mean       =   5.6484151926684E-07
(PID.TID 0000.0001) %MON trcstat_ptracer58_sd         =   7.4468272173566E-06
(PID.TID 0000.0001) %MON trcstat_ptracer58_del2       =   1.3866288477299E-07
(PID.TID 0000.0001) %MON trcstat_ptracer59_max        =   1.5443669371268E-04
(PID.TID 0000.0001) %MON trcstat_ptracer59_min        =   9.7961193805429E-51
(PID.TID 0000.0001) %MON trcstat_ptracer59_mean       =   4.9902472351902E-07
(PID.TID 0000.0001) %MON trcstat_ptracer59_sd         =   6.7375811917660E-06
(PID.TID 0000.0001) %MON trcstat_ptracer59_del2       =   1.2986513146612E-07
(PID.TID 0000.0001) %MON trcstat_ptracer60_max        =   1.5428096187453E-04
(PID.TID 0000.0001) %MON trcstat_ptracer60_min        =  -6.1992234955827E-32
(PID.TID 0000.0001) %MON trcstat_ptracer60_mean       =   5.1957183448571E-07
(PID.TID 0000.0001) %MON trcstat_ptracer60_sd         =   7.0394923902846E-06
(PID.TID 0000.0001) %MON trcstat_ptracer60_del2       =   1.3004693072986E-07
(PID.TID 0000.0001) %MON trcstat_ptracer61_max        =   1.5457057132289E-04
(PID.TID 0000.0001) %MON trcstat_ptracer61_min        =   6.6455668346930E-30
(PID.TID 0000.0001) %MON trcstat_ptracer61_mean       =   4.6412124667480E-07
(PID.TID 0000.0001) %MON trcstat_ptracer61_sd         =   6.8085865527121E-06
(PID.TID 0000.0001) %MON trcstat_ptracer61_del2       =   1.2523151575507E-07
(PID.TID 0000.0001) %MON trcstat_ptracer62_max        =   1.5443254192548E-04
(PID.TID 0000.0001) %MON trcstat_ptracer62_min        =   9.9279659583080E-51
(PID.TID 0000.0001) %MON trcstat_ptracer62_mean       =   4.6063482802422E-07
(PID.TID 0000.0001) %MON trcstat_ptracer62_sd         =   6.5865406067422E-06
(PID.TID 0000.0001) %MON trcstat_ptracer62_del2       =   1.3084094291057E-07
(PID.TID 0000.0001) %MON trcstat_ptracer63_max        =   1.5419474526159E-04
(PID.TID 0000.0001) %MON trcstat_ptracer63_min        =   9.5789690663698E-51
(PID.TID 0000.0001) %MON trcstat_ptracer63_mean       =   5.6334286103199E-07
(PID.TID 0000.0001) %MON trcstat_ptracer63_sd         =   7.0277702560194E-06
(PID.TID 0000.0001) %MON trcstat_ptracer63_del2       =   1.2680212913004E-07
(PID.TID 0000.0001) %MON trcstat_ptracer64_max        =   4.6646362661550E-04
(PID.TID 0000.0001) %MON trcstat_ptracer64_min        =  -1.7896198135753E-24
(PID.TID 0000.0001) %MON trcstat_ptracer64_mean       =   2.7322581014663E-06
(PID.TID 0000.0001) %MON trcstat_ptracer64_sd         =   2.2003168703121E-05
(PID.TID 0000.0001) %MON trcstat_ptracer64_del2       =   6.4651233018303E-07
(PID.TID 0000.0001) %MON trcstat_ptracer65_max        =   1.5397304277596E-04
(PID.TID 0000.0001) %MON trcstat_ptracer65_min        =   4.1035135208251E-18
(PID.TID 0000.0001) %MON trcstat_ptracer65_mean       =   4.0385297236217E-07
(PID.TID 0000.0001) %MON trcstat_ptracer65_sd         =   6.4274813059060E-06
(PID.TID 0000.0001) %MON trcstat_ptracer65_del2       =   1.2851934730710E-07
(PID.TID 0000.0001) %MON trcstat_ptracer66_max        =   1.5383455223486E-04
(PID.TID 0000.0001) %MON trcstat_ptracer66_min        =  -5.1234188284283E-19
(PID.TID 0000.0001) %MON trcstat_ptracer66_mean       =   4.1122510762401E-07
(PID.TID 0000.0001) %MON trcstat_ptracer66_sd         =   6.4310739618162E-06
(PID.TID 0000.0001) %MON trcstat_ptracer66_del2       =   1.2836794592746E-07
(PID.TID 0000.0001) %MON trcstat_ptracer67_max        =   1.5395315348821E-04
(PID.TID 0000.0001) %MON trcstat_ptracer67_min        =  -2.6388511961108E-17
(PID.TID 0000.0001) %MON trcstat_ptracer67_mean       =   3.9269755623429E-07
(PID.TID 0000.0001) %MON trcstat_ptracer67_sd         =   6.3947441147706E-06
(PID.TID 0000.0001) %MON trcstat_ptracer67_del2       =   1.2886681277798E-07
(PID.TID 0000.0001) %MON trcstat_ptracer68_max        =   1.5472453192316E-04
(PID.TID 0000.0001) %MON trcstat_ptracer68_min        =  -6.3904557701313E-25
(PID.TID 0000.0001) %MON trcstat_ptracer68_mean       =   3.9569718024516E-07
(PID.TID 0000.0001) %MON trcstat_ptracer68_sd         =   6.4257675443351E-06
(PID.TID 0000.0001) %MON trcstat_ptracer68_del2       =   1.2924280729946E-07
(PID.TID 0000.0001) %MON trcstat_ptracer69_max        =   1.5383455223485E-04
(PID.TID 0000.0001) %MON trcstat_ptracer69_min        =  -5.8636483185960E-19
(PID.TID 0000.0001) %MON trcstat_ptracer69_mean       =   4.1122508674609E-07
(PID.TID 0000.0001) %MON trcstat_ptracer69_sd         =   6.4310739631444E-06
(PID.TID 0000.0001) %MON trcstat_ptracer69_del2       =   1.2836794549099E-07
(PID.TID 0000.0001) %MON trcstat_ptracer70_max        =   1.5395441407572E-04
(PID.TID 0000.0001) %MON trcstat_ptracer70_min        =  -2.6725416286017E-18
(PID.TID 0000.0001) %MON trcstat_ptracer70_mean       =   4.1102111646593E-07
(PID.TID 0000.0001) %MON trcstat_ptracer70_sd         =   6.4305616124902E-06
(PID.TID 0000.0001) %MON trcstat_ptracer70_del2       =   1.2845588375251E-07
(PID.TID 0000.0001) %MON trcstat_ptracer71_max        =   1.5524076494792E-04
(PID.TID 0000.0001) %MON trcstat_ptracer71_min        =   7.8268442988862E-31
(PID.TID 0000.0001) %MON trcstat_ptracer71_mean       =   6.0734742649454E-07
(PID.TID 0000.0001) %MON trcstat_ptracer71_sd         =   7.5880030546041E-06
(PID.TID 0000.0001) %MON trcstat_ptracer71_del2       =   1.4536421200196E-07
(PID.TID 0000.0001) %MON trcstat_ptracer72_max        =   1.5383455223485E-04
(PID.TID 0000.0001) %MON trcstat_ptracer72_min        =   9.9844290557872E-51
(PID.TID 0000.0001) %MON trcstat_ptracer72_mean       =   4.1145560669880E-07
(PID.TID 0000.0001) %MON trcstat_ptracer72_sd         =   6.4332804754011E-06
(PID.TID 0000.0001) %MON trcstat_ptracer72_del2       =   1.2842307337246E-07
(PID.TID 0000.0001) %MON trcstat_ptracer73_max        =   1.9370443746728E-02
(PID.TID 0000.0001) %MON trcstat_ptracer73_min        =  -3.8573590961033E-19
(PID.TID 0000.0001) %MON trcstat_ptracer73_mean       =   6.9745507347170E-04
(PID.TID 0000.0001) %MON trcstat_ptracer73_sd         =   1.8100128630064E-03
(PID.TID 0000.0001) %MON trcstat_ptracer73_del2       =   9.9250257508867E-05
(PID.TID 0000.0001) %MON trcstat_ptracer74_max        =   1.5397304277595E-04
(PID.TID 0000.0001) %MON trcstat_ptracer74_min        =  -1.3361676678101E-18
(PID.TID 0000.0001) %MON trcstat_ptracer74_mean       =   4.0384576301038E-07
(PID.TID 0000.0001) %MON trcstat_ptracer74_sd         =   6.4274816643938E-06
(PID.TID 0000.0001) %MON trcstat_ptracer74_del2       =   1.2851832738359E-07
(PID.TID 0000.0001) %MON trcstat_ptracer75_max        =   1.5411932201351E-04
(PID.TID 0000.0001) %MON trcstat_ptracer75_min        =   4.9816167794440E-37
(PID.TID 0000.0001) %MON trcstat_ptracer75_mean       =   4.3159214391319E-07
(PID.TID 0000.0001) %MON trcstat_ptracer75_sd         =   6.4594247492582E-06
(PID.TID 0000.0001) %MON trcstat_ptracer75_del2       =   1.3164413049084E-07
(PID.TID 0000.0001) %MON trcstat_ptracer76_max        =   1.5407296037352E-04
(PID.TID 0000.0001) %MON trcstat_ptracer76_min        =  -2.4502315422048E-19
(PID.TID 0000.0001) %MON trcstat_ptracer76_mean       =   3.9252828890885E-07
(PID.TID 0000.0001) %MON trcstat_ptracer76_sd         =   6.3942651173789E-06
(PID.TID 0000.0001) %MON trcstat_ptracer76_del2       =   1.2895192311611E-07
(PID.TID 0000.0001) %MON trcstat_ptracer77_max        =   1.5405563777051E-04
(PID.TID 0000.0001) %MON trcstat_ptracer77_min        =   6.7848061401142E-29
(PID.TID 0000.0001) %MON trcstat_ptracer77_mean       =   3.9236655934156E-07
(PID.TID 0000.0001) %MON trcstat_ptracer77_sd         =   6.3932179282713E-06
(PID.TID 0000.0001) %MON trcstat_ptracer77_del2       =   1.2894990234288E-07
(PID.TID 0000.0001) %MON trcstat_ptracer78_max        =   1.5408173512306E-04
(PID.TID 0000.0001) %MON trcstat_ptracer78_min        =  -1.3665639504477E-17
(PID.TID 0000.0001) %MON trcstat_ptracer78_mean       =   3.9286796148745E-07
(PID.TID 0000.0001) %MON trcstat_ptracer78_sd         =   6.3966777033765E-06
(PID.TID 0000.0001) %MON trcstat_ptracer78_del2       =   1.2888432228659E-07
(PID.TID 0000.0001) %MON trcstat_ptracer79_max        =   9.5228285345654E-02
(PID.TID 0000.0001) %MON trcstat_ptracer79_min        =   3.2483696279425E-15
(PID.TID 0000.0001) %MON trcstat_ptracer79_mean       =   6.6932673943814E-03
(PID.TID 0000.0001) %MON trcstat_ptracer79_sd         =   1.0254062300374E-02
(PID.TID 0000.0001) %MON trcstat_ptracer79_del2       =   8.5828439236283E-04
(PID.TID 0000.0001) %MON trcstat_ptracer80_max        =   1.5488963303997E-04
(PID.TID 0000.0001) %MON trcstat_ptracer80_min        =  -1.4807757513835E-23
(PID.TID 0000.0001) %MON trcstat_ptracer80_mean       =   4.1395775622416E-07
(PID.TID 0000.0001) %MON trcstat_ptracer80_sd         =   6.4691101744842E-06
(PID.TID 0000.0001) %MON trcstat_ptracer80_del2       =   1.2901896658654E-07
(PID.TID 0000.0001) %MON trcstat_ptracer81_max        =   1.5408879138592E-04
(PID.TID 0000.0001) %MON trcstat_ptracer81_min        =   8.7273866616008E-51
(PID.TID 0000.0001) %MON trcstat_ptracer81_mean       =   4.3509938551930E-07
(PID.TID 0000.0001) %MON trcstat_ptracer81_sd         =   6.5393376823542E-06
(PID.TID 0000.0001) %MON trcstat_ptracer81_del2       =   1.2601103614953E-07
(PID.TID 0000.0001) %MON trcstat_ptracer82_max        =   1.5541054916840E-04
(PID.TID 0000.0001) %MON trcstat_ptracer82_min        =   3.2182104936318E-51
(PID.TID 0000.0001) %MON trcstat_ptracer82_mean       =   8.3403917458180E-07
(PID.TID 0000.0001) %MON trcstat_ptracer82_sd         =   8.1968854088668E-06
(PID.TID 0000.0001) %MON trcstat_ptracer82_del2       =   1.5690792288415E-07
(PID.TID 0000.0001) %MON trcstat_ptracer83_max        =   2.0946190570167E-02
(PID.TID 0000.0001) %MON trcstat_ptracer83_min        =   2.1702269137038E-35
(PID.TID 0000.0001) %MON trcstat_ptracer83_mean       =   1.3683128907423E-04
(PID.TID 0000.0001) %MON trcstat_ptracer83_sd         =   8.2314600622145E-04
(PID.TID 0000.0001) %MON trcstat_ptracer83_del2       =   2.0394810640476E-05
(PID.TID 0000.0001) %MON trcstat_ptracer84_max        =   2.1719742110832E-04
(PID.TID 0000.0001) %MON trcstat_ptracer84_min        =  -3.5834620388089E-28
(PID.TID 0000.0001) %MON trcstat_ptracer84_mean       =   9.5804648428593E-07
(PID.TID 0000.0001) %MON trcstat_ptracer84_sd         =   9.9929385781782E-06
(PID.TID 0000.0001) %MON trcstat_ptracer84_del2       =   1.9321665653202E-07
(PID.TID 0000.0001) %MON trcstat_ptracer85_max        =   1.5507209536112E-04
(PID.TID 0000.0001) %MON trcstat_ptracer85_min        =   8.4290587029697E-51
(PID.TID 0000.0001) %MON trcstat_ptracer85_mean       =   4.1571988926518E-07
(PID.TID 0000.0001) %MON trcstat_ptracer85_sd         =   6.4874952718604E-06
(PID.TID 0000.0001) %MON trcstat_ptracer85_del2       =   1.2942275429020E-07
(PID.TID 0000.0001) %MON trcstat_ptracer86_max        =   1.5395315348821E-04
(PID.TID 0000.0001) %MON trcstat_ptracer86_min        =  -2.5737890299872E-17
(PID.TID 0000.0001) %MON trcstat_ptracer86_mean       =   3.9268010347160E-07
(PID.TID 0000.0001) %MON trcstat_ptracer86_sd         =   6.3946576523121E-06
(PID.TID 0000.0001) %MON trcstat_ptracer86_del2       =   1.2887132792790E-07
(PID.TID 0000.0001) %MON trcstat_ptracer87_max        =   1.5418221800072E-04
(PID.TID 0000.0001) %MON trcstat_ptracer87_min        =  -1.8778578204708E-18
(PID.TID 0000.0001) %MON trcstat_ptracer87_mean       =   4.1225029567099E-07
(PID.TID 0000.0001) %MON trcstat_ptracer87_sd         =   6.4406991668092E-06
(PID.TID 0000.0001) %MON trcstat_ptracer87_del2       =   1.2843077583996E-07
(PID.TID 0000.0001) %MON trcstat_ptracer88_max        =   1.5464572477662E-04
(PID.TID 0000.0001) %MON trcstat_ptracer88_min        =  -1.1355362096727E-18
(PID.TID 0000.0001) %MON trcstat_ptracer88_mean       =   4.1439082355237E-07
(PID.TID 0000.0001) %MON trcstat_ptracer88_sd         =   6.4636720189825E-06
(PID.TID 0000.0001) %MON trcstat_ptracer88_del2       =   1.2880067660404E-07
(PID.TID 0000.0001) %MON trcstat_ptracer89_max        =   6.2559795411221E-02
(PID.TID 0000.0001) %MON trcstat_ptracer89_min        =   4.6262791795202E-30
(PID.TID 0000.0001) %MON trcstat_ptracer89_mean       =   3.6254400788018E-03
(PID.TID 0000.0001) %MON trcstat_ptracer89_sd         =   7.8772185124496E-03
(PID.TID 0000.0001) %MON trcstat_ptracer89_del2       =   3.8031475765864E-04
(PID.TID 0000.0001) %MON trcstat_ptracer90_max        =   1.5524600775469E-04
(PID.TID 0000.0001) %MON trcstat_ptracer90_min        =  -1.3589440172057E-18
(PID.TID 0000.0001) %MON trcstat_ptracer90_mean       =   4.0841600431316E-07
(PID.TID 0000.0001) %MON trcstat_ptracer90_sd         =   6.4845928343415E-06
(PID.TID 0000.0001) %MON trcstat_ptracer90_del2       =   1.2946784500196E-07
(PID.TID 0000.0001) %MON trcstat_ptracer91_max        =   2.6006306526955E-04
(PID.TID 0000.0001) %MON trcstat_ptracer91_min        =   2.3685415229436E-24
(PID.TID 0000.0001) %MON trcstat_ptracer91_mean       =   1.0715714282515E-06
(PID.TID 0000.0001) %MON trcstat_ptracer91_sd         =   1.1058575039253E-05
(PID.TID 0000.0001) %MON trcstat_ptracer91_del2       =   2.5492274384711E-07
(PID.TID 0000.0001) %MON trcstat_ptracer92_max        =   3.2266008096221E-04
(PID.TID 0000.0001) %MON trcstat_ptracer92_min        =   8.9658366245979E-43
(PID.TID 0000.0001) %MON trcstat_ptracer92_mean       =   2.0254827818356E-06
(PID.TID 0000.0001) %MON trcstat_ptracer92_sd         =   1.4983640542432E-05
(PID.TID 0000.0001) %MON trcstat_ptracer92_del2       =   2.9071904721852E-07
(PID.TID 0000.0001) %MON trcstat_ptracer93_max        =   7.3422869740260E-03
(PID.TID 0000.0001) %MON trcstat_ptracer93_min        =   3.4057527683697E-33
(PID.TID 0000.0001) %MON trcstat_ptracer93_mean       =   1.1610407342424E-04
(PID.TID 0000.0001) %MON trcstat_ptracer93_sd         =   4.3646850759165E-04
(PID.TID 0000.0001) %MON trcstat_ptracer93_del2       =   2.0616988954874E-05
(PID.TID 0000.0001) %MON trcstat_ptracer94_max        =   1.5395315348821E-04
(PID.TID 0000.0001) %MON trcstat_ptracer94_min        =   1.2412464088587E-28
(PID.TID 0000.0001) %MON trcstat_ptracer94_mean       =   3.9268133379431E-07
(PID.TID 0000.0001) %MON trcstat_ptracer94_sd         =   6.3946576809985E-06
(PID.TID 0000.0001) %MON trcstat_ptracer94_del2       =   1.2887137701514E-07
(PID.TID 0000.0001) %MON trcstat_ptracer95_max        =   1.5393710481749E-04
(PID.TID 0000.0001) %MON trcstat_ptracer95_min        =  -4.2349792754670E-18
(PID.TID 0000.0001) %MON trcstat_ptracer95_mean       =   4.1082220720082E-07
(PID.TID 0000.0001) %MON trcstat_ptracer95_sd         =   6.4294297531793E-06
(PID.TID 0000.0001) %MON trcstat_ptracer95_del2       =   1.2844930540546E-07
(PID.TID 0000.0001) %MON trcstat_ptracer96_max        =   1.5395315348820E-04
(PID.TID 0000.0001) %MON trcstat_ptracer96_min        =  -2.6858234309124E-17
(PID.TID 0000.0001) %MON trcstat_ptracer96_mean       =   3.9268010346691E-07
(PID.TID 0000.0001) %MON trcstat_ptracer96_sd         =   6.3946576523033E-06
(PID.TID 0000.0001) %MON trcstat_ptracer96_del2       =   1.2887132792771E-07
(PID.TID 0000.0001) %MON trcstat_ptracer97_max        =   8.0753649048310E-04
(PID.TID 0000.0001) %MON trcstat_ptracer97_min        =   1.0000000000689E-50
(PID.TID 0000.0001) %MON trcstat_ptracer97_mean       =   1.8513112429780E-06
(PID.TID 0000.0001) %MON trcstat_ptracer97_sd         =   1.6794872017833E-05
(PID.TID 0000.0001) %MON trcstat_ptracer97_del2       =   3.5990382045136E-07
(PID.TID 0000.0001) %MON trcstat_ptracer98_max        =   1.5427494356773E-04
(PID.TID 0000.0001) %MON trcstat_ptracer98_min        =  -1.0142682988115E-23
(PID.TID 0000.0001) %MON trcstat_ptracer98_mean       =   5.1437840702410E-07
(PID.TID 0000.0001) %MON trcstat_ptracer98_sd         =   6.9742578805730E-06
(PID.TID 0000.0001) %MON trcstat_ptracer98_del2       =   1.2893773430311E-07
(PID.TID 0000.0001) %MON trcstat_ptracer99_max        =   1.5407554031514E-04
(PID.TID 0000.0001) %MON trcstat_ptracer99_min        =  -9.8814200022825E-22
(PID.TID 0000.0001) %MON trcstat_ptracer99_mean       =   4.0349396124769E-07
(PID.TID 0000.0001) %MON trcstat_ptracer99_sd         =   6.4259401232299E-06
(PID.TID 0000.0001) %MON trcstat_ptracer99_del2       =   1.2860229568981E-07
(PID.TID 0000.0001) // =======================================================
(PID.TID 0000.0001) // End MONITOR ptracers field statistics
(PID.TID 0000.0001) // =======================================================
 Compute Stats, Diag. #   1386  SIqsw     vol(   0 ): 4.877E+11  Parms: SM      U1      
 Compute Stats, Diag. #     81  oceQsw    vol(   0 ): 4.877E+11  Parms: SM      U1      
 Compute Stats, Diag. #   1280  PAR       vol(   0 ): 2.820E+13  Parms: SM P    MR      
 Compute Stats, Diag. #    162  EXFswnet  vol(   0 ): 4.877E+11  Parms: SM      U1      
 Compute Stats, Diag. #    164  EXFswdn   vol(   0 ): 4.877E+11  Parms: SM      U1      
 Compute Stats, Diag. #     26  THETA     vol(   0 ): 2.820E+13  Parms: SM      MR      
 Compute Stats, Diag. #     29  SALTanom  vol(   0 ): 2.820E+13  Parms: SM      MR      
 Compute Stats, Diag. #   1281  PP        vol(   0 ): 2.820E+13  Parms: SM P    MR      
 Compute Stats, Diag. #   1049  TRAC79    vol(   0 ): 2.820E+13  Parms: SM P    MR      
 Compute Stats, Diag. #     23  ETAN      vol(   0 ): 4.877E+11  Parms: SM      M1      
 Compute Stats, Diag. #    213  TRAC03    vol(   0 ): 2.820E+13  Parms: SM P    MR      
(PID.TID 0000.0001) %CHECKPOINT    188392 ckptA
(PID.TID 0000.0001) DIAGSTATS_CLOSE_IO: close file: SIqsw_stat.0000188388.txt , unit=     9
(PID.TID 0000.0001) DIAGSTATS_CLOSE_IO: close file: oceQsw_stat.0000188388.txt , unit=    10
(PID.TID 0000.0001) DIAGSTATS_CLOSE_IO: close file: PAR_stat.0000188388.txt , unit=    11
(PID.TID 0000.0001) DIAGSTATS_CLOSE_IO: close file: EXFswnet_stat.0000188388.txt , unit=    12
(PID.TID 0000.0001) DIAGSTATS_CLOSE_IO: close file: EXFswdn_stat.0000188388.txt , unit=    13
(PID.TID 0000.0001) DIAGSTATS_CLOSE_IO: close file: THETA_stat.0000188388.txt , unit=    14
(PID.TID 0000.0001) DIAGSTATS_CLOSE_IO: close file: SALTanom_stat.0000188388.txt , unit=    16
(PID.TID 0000.0001) DIAGSTATS_CLOSE_IO: close file: PP_stat.0000188388.txt , unit=    17
(PID.TID 0000.0001) DIAGSTATS_CLOSE_IO: close file: Phy58_stat.0000188388.txt , unit=    18
(PID.TID 0000.0001) DIAGSTATS_CLOSE_IO: close file: ETAN_stat.0000188388.txt , unit=    19
(PID.TID 0000.0001) DIAGSTATS_CLOSE_IO: close file: FeT_stat.0000188388.txt , unit=    20
(PID.TID 0000.0001)   Seconds in section "ALL                    [THE_MODEL_MAIN]":
(PID.TID 0000.0001)           User time:   351.402572533116
(PID.TID 0000.0001)         System time:   1.41478500131052
(PID.TID 0000.0001)     Wall clock time:   353.133241891861
(PID.TID 0000.0001)          No. starts:           1
(PID.TID 0000.0001)           No. stops:           1
(PID.TID 0000.0001)   Seconds in section "INITIALISE_FIXED       [THE_MODEL_MAIN]":
(PID.TID 0000.0001)           User time:  0.597908994182944
(PID.TID 0000.0001)         System time:  5.699200171511620E-002
(PID.TID 0000.0001)     Wall clock time:  0.689208030700684
(PID.TID 0000.0001)          No. starts:           1
(PID.TID 0000.0001)           No. stops:           1
(PID.TID 0000.0001)   Seconds in section "THE_MAIN_LOOP          [THE_MODEL_MAIN]":
(PID.TID 0000.0001)           User time:   350.803656458855
(PID.TID 0000.0001)         System time:   1.35779299959540
(PID.TID 0000.0001)     Wall clock time:   352.443526983261
(PID.TID 0000.0001)          No. starts:           1
(PID.TID 0000.0001)           No. stops:           1
(PID.TID 0000.0001)   Seconds in section "INITIALISE_VARIA    [THE_MAIN_LOOP]":
(PID.TID 0000.0001)           User time:   7.87180411815643
(PID.TID 0000.0001)         System time:   1.07583596929908
(PID.TID 0000.0001)     Wall clock time:   9.10298585891724
(PID.TID 0000.0001)          No. starts:           1
(PID.TID 0000.0001)           No. stops:           1
(PID.TID 0000.0001)   Seconds in section "MAIN LOOP           [THE_MAIN_LOOP]":
(PID.TID 0000.0001)           User time:   342.931852340698
(PID.TID 0000.0001)         System time:  0.281957030296326
(PID.TID 0000.0001)     Wall clock time:   343.340502023697
(PID.TID 0000.0001)          No. starts:           1
(PID.TID 0000.0001)           No. stops:           1
(PID.TID 0000.0001)   Seconds in section "FORWARD_STEP        [THE_MAIN_LOOP]":
(PID.TID 0000.0001)           User time:   342.931852340698
(PID.TID 0000.0001)         System time:  0.281957030296326
(PID.TID 0000.0001)     Wall clock time:   343.340435981750
(PID.TID 0000.0001)          No. starts:           4
(PID.TID 0000.0001)           No. stops:           4
(PID.TID 0000.0001)   Seconds in section "DO_STATEVARS_DIAGS  [FORWARD_STEP]":
(PID.TID 0000.0001)           User time:   2.06468772888184
(PID.TID 0000.0001)         System time:  9.999275207519531E-004
(PID.TID 0000.0001)     Wall clock time:   2.06919503211975
(PID.TID 0000.0001)          No. starts:          12
(PID.TID 0000.0001)           No. stops:          12
(PID.TID 0000.0001)   Seconds in section "LOAD_FIELDS_DRIVER  [FORWARD_STEP]":
(PID.TID 0000.0001)           User time:  0.448939323425293
(PID.TID 0000.0001)         System time:  3.000020980834961E-003
(PID.TID 0000.0001)     Wall clock time:  0.451570034027100
(PID.TID 0000.0001)          No. starts:           4
(PID.TID 0000.0001)           No. stops:           4
(PID.TID 0000.0001)   Seconds in section "EXF_GETFORCING     [LOAD_FLDS_DRIVER]":
(PID.TID 0000.0001)           User time:  0.425934791564941
(PID.TID 0000.0001)         System time:  3.000020980834961E-003
(PID.TID 0000.0001)     Wall clock time:  0.428107023239136
(PID.TID 0000.0001)          No. starts:           4
(PID.TID 0000.0001)           No. stops:           4
(PID.TID 0000.0001)   Seconds in section "DO_ATMOSPHERIC_PHYS [FORWARD_STEP]":
(PID.TID 0000.0001)           User time:   0.00000000000000
(PID.TID 0000.0001)         System time:   0.00000000000000
(PID.TID 0000.0001)     Wall clock time:  5.507469177246094E-005
(PID.TID 0000.0001)          No. starts:           4
(PID.TID 0000.0001)           No. stops:           4
(PID.TID 0000.0001)   Seconds in section "DO_OCEANIC_PHYS     [FORWARD_STEP]":
(PID.TID 0000.0001)           User time:   33.9598169326782
(PID.TID 0000.0001)         System time:  7.997989654541016E-003
(PID.TID 0000.0001)     Wall clock time:   33.9843750000000
(PID.TID 0000.0001)          No. starts:           4
(PID.TID 0000.0001)           No. stops:           4
(PID.TID 0000.0001)   Seconds in section "SEAICE_MODEL    [DO_OCEANIC_PHYS]":
(PID.TID 0000.0001)           User time:   29.6934633255005
(PID.TID 0000.0001)         System time:  1.000046730041504E-003
(PID.TID 0000.0001)     Wall clock time:   29.7084188461304
(PID.TID 0000.0001)          No. starts:           4
(PID.TID 0000.0001)           No. stops:           4
(PID.TID 0000.0001)   Seconds in section "SEAICE_DYNSOLVER   [SEAICE_MODEL]":
(PID.TID 0000.0001)           User time:   29.0265865325928
(PID.TID 0000.0001)         System time:  1.000046730041504E-003
(PID.TID 0000.0001)     Wall clock time:   29.0395534038544
(PID.TID 0000.0001)          No. starts:           4
(PID.TID 0000.0001)           No. stops:           4
(PID.TID 0000.0001)   Seconds in section "KPP_CALC [DO_OCEANIC_PHYS]":
(PID.TID 0000.0001)           User time:   3.22355461120605
(PID.TID 0000.0001)         System time:  5.998969078063965E-003
(PID.TID 0000.0001)     Wall clock time:   3.22973871231079
(PID.TID 0000.0001)          No. starts:          16
(PID.TID 0000.0001)           No. stops:          16
(PID.TID 0000.0001)   Seconds in section "GCHEM_CALC_TENDENCY [FORWARD_STEP]":
(PID.TID 0000.0001)           User time:   0.00000000000000
(PID.TID 0000.0001)         System time:   0.00000000000000
(PID.TID 0000.0001)     Wall clock time:  5.221366882324219E-005
(PID.TID 0000.0001)          No. starts:           4
(PID.TID 0000.0001)           No. stops:           4
(PID.TID 0000.0001)   Seconds in section "DYNAMICS            [FORWARD_STEP]":
(PID.TID 0000.0001)           User time:   5.33519172668457
(PID.TID 0000.0001)         System time:  1.000046730041504E-003
(PID.TID 0000.0001)     Wall clock time:   5.33744215965271
(PID.TID 0000.0001)          No. starts:           4
(PID.TID 0000.0001)           No. stops:           4
(PID.TID 0000.0001)   Seconds in section "SOLVE_FOR_PRESSURE  [FORWARD_STEP]":
(PID.TID 0000.0001)           User time:  0.439941406250000
(PID.TID 0000.0001)         System time:   0.00000000000000
(PID.TID 0000.0001)     Wall clock time:  0.440090894699097
(PID.TID 0000.0001)          No. starts:           4
(PID.TID 0000.0001)           No. stops:           4
(PID.TID 0000.0001)   Seconds in section "MOM_CORRECTION_STEP [FORWARD_STEP]":
(PID.TID 0000.0001)           User time:  0.376920700073242
(PID.TID 0000.0001)         System time:   0.00000000000000
(PID.TID 0000.0001)     Wall clock time:  0.376388072967529
(PID.TID 0000.0001)          No. starts:           4
(PID.TID 0000.0001)           No. stops:           4
(PID.TID 0000.0001)   Seconds in section "UPDATE_ETAH         [FORWARD_STEP]":
(PID.TID 0000.0001)           User time:  9.994506835937500E-004
(PID.TID 0000.0001)         System time:   0.00000000000000
(PID.TID 0000.0001)     Wall clock time:  2.714633941650391E-003
(PID.TID 0000.0001)          No. starts:           4
(PID.TID 0000.0001)           No. stops:           4
(PID.TID 0000.0001)   Seconds in section "BLOCKING_EXCHANGES  [FORWARD_STEP]":
(PID.TID 0000.0001)           User time:   1.89472770690918
(PID.TID 0000.0001)         System time:   0.00000000000000
(PID.TID 0000.0001)     Wall clock time:   1.89520382881165
(PID.TID 0000.0001)          No. starts:           8
(PID.TID 0000.0001)           No. stops:           8
(PID.TID 0000.0001)   Seconds in section "THERMODYNAMICS      [FORWARD_STEP]":
(PID.TID 0000.0001)           User time:   204.455907821655
(PID.TID 0000.0001)         System time:  1.399815082550049E-002
(PID.TID 0000.0001)     Wall clock time:   204.528830051422
(PID.TID 0000.0001)          No. starts:           4
(PID.TID 0000.0001)           No. stops:           4
(PID.TID 0000.0001)   Seconds in section "TRC_CORRECTION_STEP [FORWARD_STEP]":
(PID.TID 0000.0001)           User time:   2.94754791259766
(PID.TID 0000.0001)         System time:   0.00000000000000
(PID.TID 0000.0001)     Wall clock time:   2.94830489158630
(PID.TID 0000.0001)          No. starts:           4
(PID.TID 0000.0001)           No. stops:           4
(PID.TID 0000.0001)   Seconds in section "GCHEM_FORCING_SEP  [FORWARD_STEP]":
(PID.TID 0000.0001)           User time:   82.5874710083008
(PID.TID 0000.0001)         System time:  2.399587631225586E-002
(PID.TID 0000.0001)     Wall clock time:   82.6539044380188
(PID.TID 0000.0001)          No. starts:           4
(PID.TID 0000.0001)           No. stops:           4
(PID.TID 0000.0001)   Seconds in section "MONITOR             [FORWARD_STEP]":
(PID.TID 0000.0001)           User time:  0.784881591796875
(PID.TID 0000.0001)         System time:   0.00000000000000
(PID.TID 0000.0001)     Wall clock time:  0.785295963287354
(PID.TID 0000.0001)          No. starts:           4
(PID.TID 0000.0001)           No. stops:           4
(PID.TID 0000.0001)   Seconds in section "DO_THE_MODEL_IO     [FORWARD_STEP]":
(PID.TID 0000.0001)           User time:   6.01705169677734
(PID.TID 0000.0001)         System time:  1.000046730041504E-003
(PID.TID 0000.0001)     Wall clock time:   6.01952195167542
(PID.TID 0000.0001)          No. starts:           4
(PID.TID 0000.0001)           No. stops:           4
(PID.TID 0000.0001)   Seconds in section "DO_WRITE_PICKUP     [FORWARD_STEP]":
(PID.TID 0000.0001)           User time:   1.61575317382813
(PID.TID 0000.0001)         System time:  0.229964971542358
(PID.TID 0000.0001)     Wall clock time:   1.84621810913086
(PID.TID 0000.0001)          No. starts:           4
(PID.TID 0000.0001)           No. stops:           4
(PID.TID 0000.0001) // ======================================================
(PID.TID 0000.0001) // Tile <-> Tile communication statistics
(PID.TID 0000.0001) // ======================================================
(PID.TID 0000.0001) // o Tile number: 000001
(PID.TID 0000.0001) //         No. X exchanges =              0
(PID.TID 0000.0001) //            Max. X spins =              0
(PID.TID 0000.0001) //            Min. X spins =     1000000000
(PID.TID 0000.0001) //          Total. X spins =              0
(PID.TID 0000.0001) //            Avg. X spins =       0.00E+00
(PID.TID 0000.0001) //         No. Y exchanges =              0
(PID.TID 0000.0001) //            Max. Y spins =              0
(PID.TID 0000.0001) //            Min. Y spins =     1000000000
(PID.TID 0000.0001) //          Total. Y spins =              0
(PID.TID 0000.0001) //            Avg. Y spins =       0.00E+00
(PID.TID 0000.0001) // o Tile number: 000002
(PID.TID 0000.0001) //         No. X exchanges =              0
(PID.TID 0000.0001) //            Max. X spins =              0
(PID.TID 0000.0001) //            Min. X spins =     1000000000
(PID.TID 0000.0001) //          Total. X spins =              0
(PID.TID 0000.0001) //            Avg. X spins =       0.00E+00
(PID.TID 0000.0001) //         No. Y exchanges =              0
(PID.TID 0000.0001) //            Max. Y spins =              0
(PID.TID 0000.0001) //            Min. Y spins =     1000000000
(PID.TID 0000.0001) //          Total. Y spins =              0
(PID.TID 0000.0001) //            Avg. Y spins =       0.00E+00
(PID.TID 0000.0001) // o Tile number: 000003
(PID.TID 0000.0001) //         No. X exchanges =              0
(PID.TID 0000.0001) //            Max. X spins =              0
(PID.TID 0000.0001) //            Min. X spins =     1000000000
(PID.TID 0000.0001) //          Total. X spins =              0
(PID.TID 0000.0001) //            Avg. X spins =       0.00E+00
(PID.TID 0000.0001) //         No. Y exchanges =              0
(PID.TID 0000.0001) //            Max. Y spins =              0
(PID.TID 0000.0001) //            Min. Y spins =     1000000000
(PID.TID 0000.0001) //          Total. Y spins =              0
(PID.TID 0000.0001) //            Avg. Y spins =       0.00E+00
(PID.TID 0000.0001) // o Tile number: 000004
(PID.TID 0000.0001) //         No. X exchanges =              0
(PID.TID 0000.0001) //            Max. X spins =              0
(PID.TID 0000.0001) //            Min. X spins =     1000000000
(PID.TID 0000.0001) //          Total. X spins =              0
(PID.TID 0000.0001) //            Avg. X spins =       0.00E+00
(PID.TID 0000.0001) //         No. Y exchanges =              0
(PID.TID 0000.0001) //            Max. Y spins =              0
(PID.TID 0000.0001) //            Min. Y spins =     1000000000
(PID.TID 0000.0001) //          Total. Y spins =              0
(PID.TID 0000.0001) //            Avg. Y spins =       0.00E+00
(PID.TID 0000.0001) // o Thread number: 000001
(PID.TID 0000.0001) //            No. barriers =          51964
(PID.TID 0000.0001) //      Max. barrier spins =              1
(PID.TID 0000.0001) //      Min. barrier spins =              1
(PID.TID 0000.0001) //     Total barrier spins =          51964
(PID.TID 0000.0001) //      Avg. barrier spins =       1.00E+00
