(PID.TID 0000.0001) 
(PID.TID 0000.0001) // ======================================================
(PID.TID 0000.0001) //                      MITgcm UV
(PID.TID 0000.0001) //                      =========
(PID.TID 0000.0001) // ======================================================
(PID.TID 0000.0001) // execution environment starting up...
(PID.TID 0000.0001) 
(PID.TID 0000.0001) // MITgcmUV version:  checkpoint61a
(PID.TID 0000.0001) // Build user:        stephd
(PID.TID 0000.0001) // Build host:        gibson
(PID.TID 0000.0001) // Build date:        Fri Aug  1 17:24:18 EDT 2008
(PID.TID 0000.0001) 
(PID.TID 0000.0001) // =======================================================
(PID.TID 0000.0001) // Execution Environment parameter file "eedata"
(PID.TID 0000.0001) // =======================================================
(PID.TID 0000.0001) ># Example "eedata" file
(PID.TID 0000.0001) ># Lines beginning "#" are comments
(PID.TID 0000.0001) ># nTx - No. threads per process in X
(PID.TID 0000.0001) ># nTy - No. threads per process in Y
(PID.TID 0000.0001) > &EEPARMS
(PID.TID 0000.0001) > nTx=1,nTy=1
(PID.TID 0000.0001) > /
(PID.TID 0000.0001) ># Note: Some systems use & as the
(PID.TID 0000.0001) ># namelist terminator. Other systems
(PID.TID 0000.0001) ># use a / character (as shown here).
(PID.TID 0000.0001) 
(PID.TID 0000.0001) // =======================================================
(PID.TID 0000.0001) // Computational Grid Specification ( see files "SIZE.h" )
(PID.TID 0000.0001) //                                  ( and "eedata"       )
(PID.TID 0000.0001) // =======================================================
(PID.TID 0000.0001)      nPx =    1 ; /* No. processes in X */
(PID.TID 0000.0001)      nPy =    1 ; /* No. processes in Y */
(PID.TID 0000.0001)      nSx =    1 ; /* No. tiles in X per process */
(PID.TID 0000.0001)      nSy =    1 ; /* No. tiles in Y per process */
(PID.TID 0000.0001)      sNx =    1 ; /* Tile size in X */
(PID.TID 0000.0001)      sNy =    1 ; /* Tile size in Y */
(PID.TID 0000.0001)      OLx =    2 ; /* Tile overlap distance in X */
(PID.TID 0000.0001)      OLy =    2 ; /* Tile overlap distance in Y */
(PID.TID 0000.0001)      nTx =    1 ; /* No. threads in X per process */
(PID.TID 0000.0001)      nTy =    1 ; /* No. threads in Y per process */
(PID.TID 0000.0001)       Nr =   35 ; /* No. levels in the vertical   */
(PID.TID 0000.0001)       nX =    1 ; /* Total domain size in X ( = nPx*nSx*sNx ) */
(PID.TID 0000.0001)       nY =    1 ; /* Total domain size in Y ( = nPy*nSy*sNy ) */
(PID.TID 0000.0001)   nTiles =    1 ; /* Total no. tiles per process ( = nSx*nSy ) */
(PID.TID 0000.0001)   nProcs =    1 ; /* Total no. processes ( = nPx*nPy ) */
(PID.TID 0000.0001) nThreads =    1 ; /* Total no. threads per process ( = nTx*nTy ) */
(PID.TID 0000.0001) usingMPI =    F ; /* Flag used to control whether MPI is in use */
(PID.TID 0000.0001)                   /*  note: To execute a program with MPI calls */
(PID.TID 0000.0001)                   /*  it must be launched appropriately e.g     */
(PID.TID 0000.0001)                   /*  "mpirun -np 64 ......"                    */
(PID.TID 0000.0001) useCoupler=   F ; /* Flag used to control communications with */
(PID.TID 0000.0001)                   /*  other model components, through a coupler */
(PID.TID 0000.0001) 
(PID.TID 0000.0001) // ======================================================
(PID.TID 0000.0001) // Mapping of tiles to threads
(PID.TID 0000.0001) // ======================================================
(PID.TID 0000.0001) // -o- Thread   1, tiles (   1:   1,   1:   1)
(PID.TID 0000.0001) 
(PID.TID 0000.0001) // ======================================================
(PID.TID 0000.0001) // Tile <-> Tile connectvity table
(PID.TID 0000.0001) // ======================================================
(PID.TID 0000.0001) // Tile number: 000001 (process no. = 000001)
(PID.TID 0000.0001) //        WEST: Tile = 000001, Process = 000001, Comm = put
(PID.TID 0000.0001) //                bi = 000001, bj = 000001
(PID.TID 0000.0001) //        EAST: Tile = 000001, Process = 000001, Comm = put
(PID.TID 0000.0001) //                bi = 000001, bj = 000001
(PID.TID 0000.0001) //       SOUTH: Tile = 000001, Process = 000001, Comm = put
(PID.TID 0000.0001) //                bi = 000001, bj = 000001
(PID.TID 0000.0001) //       NORTH: Tile = 000001, Process = 000001, Comm = put
(PID.TID 0000.0001) //                bi = 000001, bj = 000001
(PID.TID 0000.0001) 
(PID.TID 0000.0001) // =======================================================
(PID.TID 0000.0001) // Model parameter file "data"
(PID.TID 0000.0001) // =======================================================
(PID.TID 0000.0001) >#
(PID.TID 0000.0001) ># ******************************
(PID.TID 0000.0001) ># Model parameters
(PID.TID 0000.0001) ># Continuous equation parameters
(PID.TID 0000.0001) ># ******************************
(PID.TID 0000.0001) >&PARM01
(PID.TID 0000.0001) >tRef= 26.5, 26.1, 26., 25.5, 25.4, 24.9, 24.5, 24.0, 23.7,
(PID.TID 0000.0001) >      23.3, 23.1, 22.8, 22.5, 22.1, 21.6, 20.6, 19.5, 18.4,
(PID.TID 0000.0001) >      17.3, 16.6, 15.5, 14.6, 13.8, 13.1, 11.6, 10.1, 7.7,
(PID.TID 0000.0001) >      5.3, 4.1, 3.7, 3.7, 3.4, 3.0, 2.8, 2.6,
(PID.TID 0000.0001) >sRef= 35*35.00,
(PID.TID 0000.0001) >no_slip_sides=.false.,
(PID.TID 0000.0001) >no_slip_bottom=.TRUE.,
(PID.TID 0000.0001) >viscAz=0.e0,
(PID.TID 0000.0001) >viscAh=0.e0,
(PID.TID 0000.0001) >diffKhT=1.E2,
(PID.TID 0000.0001) >diffKzT=1.E-4,
(PID.TID 0000.0001) >diffKhS=0.D0,
(PID.TID 0000.0001) >diffKzS=0.D0,
(PID.TID 0000.0001) >beta=1.E-11,
(PID.TID 0000.0001) >tAlpha=2.E-4,
(PID.TID 0000.0001) >sBeta =7.4E-4,
(PID.TID 0000.0001) >gravity=9.81,
(PID.TID 0000.0001) >gBaro=9.81,
(PID.TID 0000.0001) >rigidLid=.TRUE.,
(PID.TID 0000.0001) >implicitFreeSurface=.false.,
(PID.TID 0000.0001) >eosType='JMD95Z',
(PID.TID 0000.0001) >saltStepping=.FALSE.,
(PID.TID 0000.0001) >tempStepping=.TRUE.,
(PID.TID 0000.0001) >tempAdvection=.TRUE.,
(PID.TID 0000.0001) >momStepping=.FALSE.,
(PID.TID 0000.0001) >implicitDiffusion=.true.,
(PID.TID 0000.0001) >implicitViscosity=.false.,
(PID.TID 0000.0001) >allowFreezing=.false.,
(PID.TID 0000.0001) >useSingleCpuIO=.TRUE.,
(PID.TID 0000.0001) >useCDscheme=.FALSE.,
(PID.TID 0000.0001) >tempAdvScheme = 3,
(PID.TID 0000.0001) >saltAdvScheme = 3,
(PID.TID 0000.0001) >/
(PID.TID 0000.0001) >
(PID.TID 0000.0001) ># **************************
(PID.TID 0000.0001) ># Elliptic solver parameters
(PID.TID 0000.0001) ># **************************
(PID.TID 0000.0001) >&PARM02
(PID.TID 0000.0001) >cg2dMaxIters=300,
(PID.TID 0000.0001) >cg2dTargetResidual=1.E-7,
(PID.TID 0000.0001) >/
(PID.TID 0000.0001) >
(PID.TID 0000.0001) ># ************************
(PID.TID 0000.0001) ># Time stepping parameters
(PID.TID 0000.0001) ># ************************
(PID.TID 0000.0001) >&PARM03
(PID.TID 0000.0001) > nIter0=0,
(PID.TID 0000.0001) >#nTimeSteps=86400,
(PID.TID 0000.0001) > nTimeSteps=4,
(PID.TID 0000.0001) > deltaTmom= 3600.,
(PID.TID 0000.0001) > deltaTtracer= 3600.,
(PID.TID 0000.0001) > deltaTClock = 3600.,
(PID.TID 0000.0001) > cAdjFreq    = -1.,
(PID.TID 0000.0001) > abEps=0.1,
(PID.TID 0000.0001) > pChkptFreq  = 31104000.0,
(PID.TID 0000.0001) > chkptFreq   = 31104000.0,
(PID.TID 0000.0001) > dumpFreq    = 31104000.0,
(PID.TID 0000.0001) > taveFreq    = 2592000.,
(PID.TID 0000.0001) >#monitorFreq = 2592000.,
(PID.TID 0000.0001) > monitorFreq = 1.,
(PID.TID 0000.0001) > tauThetaClimRelax=259200.,
(PID.TID 0000.0001) > tauSaltClimRelax=0.,
(PID.TID 0000.0001) > periodicExternalForcing=.TRUE.,
(PID.TID 0000.0001) > externForcingPeriod=2592000.,
(PID.TID 0000.0001) > externForcingCycle=31104000.,
(PID.TID 0000.0001) >/
(PID.TID 0000.0001) >
(PID.TID 0000.0001) ># *******************
(PID.TID 0000.0001) ># Gridding parameters
(PID.TID 0000.0001) ># *******************
(PID.TID 0000.0001) >&PARM04
(PID.TID 0000.0001) >usingCartesianGrid=.FALSE.,
(PID.TID 0000.0001) >usingSphericalPolarGrid=.TRUE.,
(PID.TID 0000.0001) >delX=1*1.E0,
(PID.TID 0000.0001) >delY=1*1.E0,
(PID.TID 0000.0001) >delZ=14*10, 5*15, 4*20, 2*50, 100, 2*150, 200, 300, 3*400, 2*500,
(PID.TID 0000.0001) >phimin=-18.,
(PID.TID 0000.0001) >thetamin=335,
(PID.TID 0000.0001) >/
(PID.TID 0000.0001) >
(PID.TID 0000.0001) ># **********
(PID.TID 0000.0001) ># Data Files
(PID.TID 0000.0001) ># **********
(PID.TID 0000.0001) >&PARM05
(PID.TID 0000.0001) >bathyFile=       'input/bathyneg.bin',
(PID.TID 0000.0001) >hydrogThetaFile= 'input/loc1_temp_janprof.bin',
(PID.TID 0000.0001) >hydrogSaltFile=  'input/salt_uniform.bin',
(PID.TID 0000.0001) >zonalWindFile=   '',
(PID.TID 0000.0001) >meridWindFile=   '',
(PID.TID 0000.0001) >thetaClimFile=   'input/loc1_temp_monsurf.bin',
(PID.TID 0000.0001) >saltClimFile=    '',
(PID.TID 0000.0001) >surfQFile=       '',
(PID.TID 0000.0001) >EmPmRFile=       '',
(PID.TID 0000.0001) >/
(PID.TID 0000.0001) 
(PID.TID 0000.0001) S/R INI_PARMS ; starts to read PARM01
(PID.TID 0000.0001) S/R INI_PARMS ; read PARM01 : OK
(PID.TID 0000.0001) S/R INI_PARMS ; starts to read PARM02
(PID.TID 0000.0001) S/R INI_PARMS ; read PARM02 : OK
(PID.TID 0000.0001) S/R INI_PARMS ; starts to read PARM03
(PID.TID 0000.0001) S/R INI_PARMS ; read PARM03 : OK
(PID.TID 0000.0001) S/R INI_PARMS ; starts to read PARM04
(PID.TID 0000.0001) S/R INI_PARMS ; read PARM04 : OK
(PID.TID 0000.0001) S/R INI_PARMS ; starts to read PARM05
(PID.TID 0000.0001) S/R INI_PARMS ; read PARM05 : OK
(PID.TID 0000.0001)  PACKAGES_BOOT: opening data.pkg
(PID.TID 0000.0001)  OPEN_COPY_DATA_FILE: opening file data.pkg
(PID.TID 0000.0001) // =======================================================
(PID.TID 0000.0001) // Parameter file "data.pkg"
(PID.TID 0000.0001) // =======================================================
(PID.TID 0000.0001) ># Packages
(PID.TID 0000.0001) > &PACKAGES
(PID.TID 0000.0001) > usePTRACERS=.TRUE.
(PID.TID 0000.0001) > useGCHEM=.TRUE.,
(PID.TID 0000.0001) > useKPP=.FALSE.,
(PID.TID 0000.0001) > useMNC=.TRUE.,
(PID.TID 0000.0001) > /
(PID.TID 0000.0001) 
(PID.TID 0000.0001)  PACKAGES_BOOT: finished reading data.pkg
(PID.TID 0000.0001)  MNC_READPARMS: opening file 'data.mnc'
(PID.TID 0000.0001)  OPEN_COPY_DATA_FILE: opening file data.mnc
(PID.TID 0000.0001) // =======================================================
(PID.TID 0000.0001) // Parameter file "data.mnc"
(PID.TID 0000.0001) // =======================================================
(PID.TID 0000.0001) ># Example "data.mnc" file
(PID.TID 0000.0001) ># Lines beginning "#" are comments
(PID.TID 0000.0001) > &MNC_01
(PID.TID 0000.0001) ># mnc_echo_gvtypes=.FALSE.,
(PID.TID 0000.0001) ># mnc_use_indir=.FALSE.,
(PID.TID 0000.0001) > mnc_use_outdir=.TRUE.,
(PID.TID 0000.0001) > mnc_outdir_str='dar1d_',
(PID.TID 0000.0001) > mnc_outdir_date=.TRUE.,
(PID.TID 0000.0001) > monitor_mnc=.FALSE.,
(PID.TID 0000.0001) > snapshot_mnc=.TRUE.,
(PID.TID 0000.0001) > timeave_mnc=.TRUE.,
(PID.TID 0000.0001) > pickup_read_mnc=.FALSE.,
(PID.TID 0000.0001) > pickup_write_mnc=.FALSE.,
(PID.TID 0000.0001) > &
(PID.TID 0000.0001) ># Note: Some systems use & as the
(PID.TID 0000.0001) ># namelist terminator. Other systems
(PID.TID 0000.0001) ># use a / character.
(PID.TID 0000.0001) 
(PID.TID 0000.0001)  MNC_READPARMS: finished reading data.mnc
(PID.TID 0000.0001)  PTRACERS_READPARMS: opening data.ptracers
(PID.TID 0000.0001)  OPEN_COPY_DATA_FILE: opening file data.ptracers
(PID.TID 0000.0001) // =======================================================
(PID.TID 0000.0001) // Parameter file "data.ptracers"
(PID.TID 0000.0001) // =======================================================
(PID.TID 0000.0001) > &PTRACERS_PARM01
(PID.TID 0000.0001) > PTRACERS_numInUse=99,
(PID.TID 0000.0001) > PTRACERS_Iter0= 0,
(PID.TID 0000.0001) ># tracer 1 - phosphate
(PID.TID 0000.0001) > PTRACERS_names(1)='PO4',
(PID.TID 0000.0001) > PTRACERS_units(1)='mmol P/m^3',
(PID.TID 0000.0001) > PTRACERS_advScheme(1)=33,
(PID.TID 0000.0001) > PTRACERS_diffKh(1)=0.E3,
(PID.TID 0000.0001) > PTRACERS_diffKr(1)=1.E-5,
(PID.TID 0000.0001) > PTRACERS_useGMRedi(1)=.FALSE. ,
(PID.TID 0000.0001) > PTRACERS_useKPP(1)=.FALSE. ,
(PID.TID 0000.0001) > PTRACERS_initialFile(1)='input/loc1_phos_janprof.bin',
(PID.TID 0000.0001) ># tracer 2 - nitrate
(PID.TID 0000.0001) > PTRACERS_names(2)='NO3',
(PID.TID 0000.0001) > PTRACERS_units(2)='mmol N/m^3',
(PID.TID 0000.0001) > PTRACERS_advScheme(2)=33,
(PID.TID 0000.0001) > PTRACERS_diffKh(2)=0.E3,
(PID.TID 0000.0001) > PTRACERS_diffKr(2)=1.E-5,
(PID.TID 0000.0001) > PTRACERS_useGMRedi(2)=.FALSE. ,
(PID.TID 0000.0001) > PTRACERS_useKPP(2)=.FALSE. ,
(PID.TID 0000.0001) > PTRACERS_initialFile(2)='input/loc1_nitr_janprof.bin',
(PID.TID 0000.0001) ># tracer 3 - dissolved iron
(PID.TID 0000.0001) > PTRACERS_names(3)='FeT',
(PID.TID 0000.0001) > PTRACERS_units(3)='mmol Fe/m^3',
(PID.TID 0000.0001) > PTRACERS_advScheme(3)=33,
(PID.TID 0000.0001) > PTRACERS_diffKh(3)=0.E3,
(PID.TID 0000.0001) > PTRACERS_diffKr(3)=1.E-5,
(PID.TID 0000.0001) > PTRACERS_useGMRedi(3)=.FALSE. ,
(PID.TID 0000.0001) > PTRACERS_useKPP(3)=.FALSE. ,
(PID.TID 0000.0001) >#PTRACERS_initialFile(3)='input/loc1_FeT_run83_janprof.bin',
(PID.TID 0000.0001) > PTRACERS_initialFile(3)='input/fet_uniform.bin',
(PID.TID 0000.0001) ># tracer 4 - silicic acid
(PID.TID 0000.0001) > PTRACERS_names(4)='SiO2',
(PID.TID 0000.0001) > PTRACERS_units(4)='mmol Si/m^3',
(PID.TID 0000.0001) > PTRACERS_advScheme(4)=33,
(PID.TID 0000.0001) > PTRACERS_diffKh(4)=0.E3,
(PID.TID 0000.0001) > PTRACERS_diffKr(4)=1.E-5,
(PID.TID 0000.0001) > PTRACERS_useGMRedi(4)=.FALSE. ,
(PID.TID 0000.0001) > PTRACERS_useKPP(4)=.FALSE. ,
(PID.TID 0000.0001) > PTRACERS_initialFile(4)='input/loc1_sil_janprof.bin',
(PID.TID 0000.0001) ># tracer 5 - DOP
(PID.TID 0000.0001) > PTRACERS_names(5)='DOP',
(PID.TID 0000.0001) > PTRACERS_units(5)='mmol P/m^3',
(PID.TID 0000.0001) > PTRACERS_advScheme(5)=33,
(PID.TID 0000.0001) > PTRACERS_diffKh(5)=0.E3,
(PID.TID 0000.0001) > PTRACERS_diffKr(5)=1.E-5,
(PID.TID 0000.0001) > PTRACERS_useGMRedi(5)=.FALSE. ,
(PID.TID 0000.0001) > PTRACERS_useKPP(5)=.FALSE.  ,
(PID.TID 0000.0001) > PTRACERS_initialFile(5)='input/loc1_DOP_run83_janprof.bin',
(PID.TID 0000.0001) ># tracer 6 - DON
(PID.TID 0000.0001) > PTRACERS_names(6)='DON',
(PID.TID 0000.0001) > PTRACERS_units(6)='mmol N/m^3',
(PID.TID 0000.0001) > PTRACERS_advScheme(6)=33,
(PID.TID 0000.0001) > PTRACERS_diffKh(6)=0.E3,
(PID.TID 0000.0001) > PTRACERS_diffKr(6)=1.E-5,
(PID.TID 0000.0001) > PTRACERS_useGMRedi(6)=.FALSE. ,
(PID.TID 0000.0001) > PTRACERS_useKPP(6)=.FALSE.  ,
(PID.TID 0000.0001) > PTRACERS_initialFile(6)='input/loc1_DON_run83_janprof.bin',
(PID.TID 0000.0001) ># tracer 7 - DOFe
(PID.TID 0000.0001) > PTRACERS_names(7)='DOFe',
(PID.TID 0000.0001) > PTRACERS_units(7)='mmol Fe/m^3',
(PID.TID 0000.0001) > PTRACERS_advScheme(7)=33,
(PID.TID 0000.0001) > PTRACERS_diffKh(7)=0.E3,
(PID.TID 0000.0001) > PTRACERS_diffKr(7)=1.E-5,
(PID.TID 0000.0001) > PTRACERS_useGMRedi(7)=.FALSE. ,
(PID.TID 0000.0001) > PTRACERS_useKPP(7)=.FALSE.  ,
(PID.TID 0000.0001) > PTRACERS_initialFile(7)='input/loc1_DOFe_run83_janprof.bin',
(PID.TID 0000.0001) ># tracer 8 - ZOO1P
(PID.TID 0000.0001) > PTRACERS_names(8)='ZOO1P',
(PID.TID 0000.0001) > PTRACERS_units(8)='mmol P/m^3',
(PID.TID 0000.0001) > PTRACERS_advScheme(8)=33,
(PID.TID 0000.0001) > PTRACERS_diffKh(8)=0.E3,
(PID.TID 0000.0001) > PTRACERS_diffKr(8)=1.E-5,
(PID.TID 0000.0001) > PTRACERS_useGMRedi(8)=.FALSE. ,
(PID.TID 0000.0001) > PTRACERS_useKPP(8)=.FALSE.  ,
(PID.TID 0000.0001) > PTRACERS_initialFile(8)='input/loc1_ZOOP_run83_janprof.bin',
(PID.TID 0000.0001) ># tracer 9 - ZOO1N
(PID.TID 0000.0001) > PTRACERS_names(9)='ZOO1N',
(PID.TID 0000.0001) > PTRACERS_units(9)='mmol N/m^3'
(PID.TID 0000.0001) > PTRACERS_advScheme(9)=33,
(PID.TID 0000.0001) > PTRACERS_diffKh(9)=0.E3,
(PID.TID 0000.0001) > PTRACERS_diffKr(9)=1.E-5,
(PID.TID 0000.0001) > PTRACERS_useGMRedi(9)=.FALSE. ,
(PID.TID 0000.0001) > PTRACERS_useKPP(9)=.FALSE.  ,
(PID.TID 0000.0001) > PTRACERS_initialFile(9)='input/loc1_ZOON_run83_janprof.bin',
(PID.TID 0000.0001) ># tracer 10 - ZOO1Fe
(PID.TID 0000.0001) > PTRACERS_names(10)='ZOO1Fe',
(PID.TID 0000.0001) > PTRACERS_units(10)='mmol Fe/m^3'
(PID.TID 0000.0001) > PTRACERS_advScheme(10)=33,
(PID.TID 0000.0001) > PTRACERS_diffKh(10)=0.E3,
(PID.TID 0000.0001) > PTRACERS_diffKr(10)=1.E-5,
(PID.TID 0000.0001) > PTRACERS_useGMRedi(10)=.FALSE. ,
(PID.TID 0000.0001) > PTRACERS_useKPP(10)=.FALSE.  ,
(PID.TID 0000.0001) > PTRACERS_initialFile(10)='input/loc1_ZOOFe_run83_janprof.bin',
(PID.TID 0000.0001) ># tracer 11 - ZOO1Si
(PID.TID 0000.0001) > PTRACERS_names(11)='ZOO1Si',
(PID.TID 0000.0001) > PTRACERS_units(11)='mmol Si/m^3'
(PID.TID 0000.0001) > PTRACERS_advScheme(11)=33,
(PID.TID 0000.0001) > PTRACERS_diffKh(11)=0.E3,
(PID.TID 0000.0001) > PTRACERS_diffKr(11)=1.E-5,
(PID.TID 0000.0001) > PTRACERS_useGMRedi(11)=.FALSE. ,
(PID.TID 0000.0001) > PTRACERS_useKPP(11)=.FALSE.  ,
(PID.TID 0000.0001) > PTRACERS_initialFile(11)='input/loc1_ZOOSi_run83_janprof.bin',
(PID.TID 0000.0001) ># tracer 12 - ZOO2P
(PID.TID 0000.0001) > PTRACERS_names(12)='ZOO2P',
(PID.TID 0000.0001) > PTRACERS_units(12)='mmol P/m^3',
(PID.TID 0000.0001) > PTRACERS_advScheme(12)=33,
(PID.TID 0000.0001) > PTRACERS_diffKh(12)=0.E3,
(PID.TID 0000.0001) > PTRACERS_diffKr(12)=1.E-5,
(PID.TID 0000.0001) > PTRACERS_useGMRedi(12)=.FALSE. ,
(PID.TID 0000.0001) > PTRACERS_useKPP(12)=.FALSE.  ,
(PID.TID 0000.0001) > PTRACERS_initialFile(12)='input/loc1_ZOOP_run83_janprof.bin',
(PID.TID 0000.0001) ># tracer 13 - ZOO2N
(PID.TID 0000.0001) > PTRACERS_names(13)='ZOO2N',
(PID.TID 0000.0001) > PTRACERS_units(13)='mmol N/m^3'
(PID.TID 0000.0001) > PTRACERS_advScheme(13)=33,
(PID.TID 0000.0001) > PTRACERS_diffKh(13)=0.E3,
(PID.TID 0000.0001) > PTRACERS_diffKr(13)=1.E-5,
(PID.TID 0000.0001) > PTRACERS_useGMRedi(13)=.FALSE. ,
(PID.TID 0000.0001) > PTRACERS_useKPP(13)=.FALSE.  ,
(PID.TID 0000.0001) > PTRACERS_initialFile(13)='input/loc1_ZOON_run83_janprof.bin',
(PID.TID 0000.0001) ># tracer 14 - ZOO2Fe
(PID.TID 0000.0001) > PTRACERS_names(14)='ZOO2Fe',
(PID.TID 0000.0001) > PTRACERS_units(14)='mmol Fe/m^3'
(PID.TID 0000.0001) > PTRACERS_advScheme(14)=33,
(PID.TID 0000.0001) > PTRACERS_diffKh(14)=0.E3,
(PID.TID 0000.0001) > PTRACERS_diffKr(14)=1.E-5,
(PID.TID 0000.0001) > PTRACERS_useGMRedi(14)=.FALSE. ,
(PID.TID 0000.0001) > PTRACERS_useKPP(14)=.FALSE.  ,
(PID.TID 0000.0001) > PTRACERS_initialFile(14)='input/loc1_ZOOFe_run83_janprof.bin',
(PID.TID 0000.0001) ># tracer 15 - ZOO2Si
(PID.TID 0000.0001) > PTRACERS_names(15)='ZOO2Si',
(PID.TID 0000.0001) > PTRACERS_units(15)='mmol Si/m^3'
(PID.TID 0000.0001) > PTRACERS_advScheme(15)=33,
(PID.TID 0000.0001) > PTRACERS_diffKh(15)=0.E3,
(PID.TID 0000.0001) > PTRACERS_diffKr(15)=1.E-5,
(PID.TID 0000.0001) > PTRACERS_useGMRedi(15)=.FALSE. ,
(PID.TID 0000.0001) > PTRACERS_useKPP(15)=.FALSE.  ,
(PID.TID 0000.0001) > PTRACERS_initialFile(15)='input/loc1_ZOOSi_run83_janprof.bin',
(PID.TID 0000.0001) ># tracer 16 - POP
(PID.TID 0000.0001) > PTRACERS_names(16)='POP',
(PID.TID 0000.0001) > PTRACERS_units(16)='mmol P/m^3',
(PID.TID 0000.0001) > PTRACERS_advScheme(16)=33,
(PID.TID 0000.0001) > PTRACERS_diffKh(16)=0.E3,
(PID.TID 0000.0001) > PTRACERS_diffKr(16)=1.E-5,
(PID.TID 0000.0001) > PTRACERS_useGMRedi(16)=.FALSE. ,
(PID.TID 0000.0001) > PTRACERS_useKPP(16)=.FALSE.  ,
(PID.TID 0000.0001) > PTRACERS_initialFile(16)='input/loc1_POP_run83_janprof.bin',
(PID.TID 0000.0001) ># tracer 17 - PON
(PID.TID 0000.0001) > PTRACERS_names(17)='PON',
(PID.TID 0000.0001) > PTRACERS_units(17)='mmol N/m^3',
(PID.TID 0000.0001) > PTRACERS_advScheme(17)=33,
(PID.TID 0000.0001) > PTRACERS_diffKh(17)=0.E3,
(PID.TID 0000.0001) > PTRACERS_diffKr(17)=1.E-5,
(PID.TID 0000.0001) > PTRACERS_useGMRedi(17)=.FALSE. ,
(PID.TID 0000.0001) > PTRACERS_useKPP(17)=.FALSE.  ,
(PID.TID 0000.0001) > PTRACERS_initialFile(17)='input/loc1_PON_run83_janprof.bin',
(PID.TID 0000.0001) ># tracer 18 - POFe
(PID.TID 0000.0001) > PTRACERS_names(18)='POFe',
(PID.TID 0000.0001) > PTRACERS_units(18)='mmol Fe/m^3'
(PID.TID 0000.0001) > PTRACERS_advScheme(18)=33,
(PID.TID 0000.0001) > PTRACERS_diffKh(18)=0.E3,
(PID.TID 0000.0001) > PTRACERS_diffKr(18)=1.E-5,
(PID.TID 0000.0001) > PTRACERS_useGMRedi(18)=.FALSE. ,
(PID.TID 0000.0001) > PTRACERS_useKPP(18)=.FALSE.  ,
(PID.TID 0000.0001) > PTRACERS_initialFile(18)='input/loc1_POFe_run83_janprof.bin',
(PID.TID 0000.0001) ># tracer 19 - POSi
(PID.TID 0000.0001) > PTRACERS_names(19)='POSi',
(PID.TID 0000.0001) > PTRACERS_units(19)='mmol Si/m^3'
(PID.TID 0000.0001) > PTRACERS_advScheme(19)=33,
(PID.TID 0000.0001) > PTRACERS_diffKh(19)=0.E3,
(PID.TID 0000.0001) > PTRACERS_diffKr(19)=1.E-5,
(PID.TID 0000.0001) > PTRACERS_useGMRedi(19)=.FALSE. ,
(PID.TID 0000.0001) > PTRACERS_useKPP(19)=.FALSE.  ,
(PID.TID 0000.0001) > PTRACERS_initialFile(19)='input/loc1_POSi_run83_janprof.bin',
(PID.TID 0000.0001) ># tracer 20 - NH4
(PID.TID 0000.0001) > PTRACERS_names(20)='NH4',
(PID.TID 0000.0001) > PTRACERS_units(20)='mmol N/m^3'
(PID.TID 0000.0001) > PTRACERS_advScheme(20)=33,
(PID.TID 0000.0001) > PTRACERS_diffKh(20)=0.E3,
(PID.TID 0000.0001) > PTRACERS_diffKr(20)=1.E-5,
(PID.TID 0000.0001) > PTRACERS_useGMRedi(20)=.FALSE. ,
(PID.TID 0000.0001) > PTRACERS_useKPP(20)=.FALSE.  ,
(PID.TID 0000.0001) > PTRACERS_initialFile(20)='input/loc1_NH4_run83_janprof.bin',
(PID.TID 0000.0001) ># tracer 21 - NO2
(PID.TID 0000.0001) > PTRACERS_names(21)='NO2',
(PID.TID 0000.0001) > PTRACERS_units(21)='mmol N/m^3'
(PID.TID 0000.0001) > PTRACERS_advScheme(21)=33,
(PID.TID 0000.0001) > PTRACERS_diffKh(21)=0.E3,
(PID.TID 0000.0001) > PTRACERS_diffKr(21)=1.E-5,
(PID.TID 0000.0001) > PTRACERS_useGMRedi(21)=.FALSE. ,
(PID.TID 0000.0001) > PTRACERS_useKPP(21)=.FALSE.  ,
(PID.TID 0000.0001) > PTRACERS_initialFile(21)='input/loc1_NO2_run83_janprof.bin',
(PID.TID 0000.0001) ># tracer 22 - PHYT01
(PID.TID 0000.0001) > PTRACERS_names(22)='Phy1',
(PID.TID 0000.0001) > PTRACERS_units(22)='mmol P/m^3'
(PID.TID 0000.0001) > PTRACERS_advScheme(22)=33,
(PID.TID 0000.0001) > PTRACERS_diffKh(22)=0.E3,
(PID.TID 0000.0001) > PTRACERS_diffKr(22)=1.E-5,
(PID.TID 0000.0001) > PTRACERS_useGMRedi(22)=.FALSE. ,
(PID.TID 0000.0001) > PTRACERS_useKPP(22)=.FALSE.  ,
(PID.TID 0000.0001) > PTRACERS_initialFile(22)='input/loc1_biomass_run83_janprof.bin',
(PID.TID 0000.0001) ># tracer 23 - PHYT02
(PID.TID 0000.0001) > PTRACERS_names(23)='Phy2',
(PID.TID 0000.0001) > PTRACERS_units(23)='mmol P/m^3'
(PID.TID 0000.0001) > PTRACERS_advScheme(23)=33,
(PID.TID 0000.0001) > PTRACERS_diffKh(23)=0.E3,
(PID.TID 0000.0001) > PTRACERS_diffKr(23)=1.E-5,
(PID.TID 0000.0001) > PTRACERS_useGMRedi(23)=.FALSE. ,
(PID.TID 0000.0001) > PTRACERS_useKPP(23)=.FALSE.  ,
(PID.TID 0000.0001) > PTRACERS_initialFile(23)='input/loc1_biomass_run83_janprof.bin',
(PID.TID 0000.0001) ># tracer 24 - PHYT03
(PID.TID 0000.0001) > PTRACERS_names(24)='Phy3',
(PID.TID 0000.0001) > PTRACERS_units(24)='mmol P/m^3'
(PID.TID 0000.0001) > PTRACERS_advScheme(24)=33,
(PID.TID 0000.0001) > PTRACERS_diffKh(24)=0.E3,
(PID.TID 0000.0001) > PTRACERS_diffKr(24)=1.E-5,
(PID.TID 0000.0001) > PTRACERS_useGMRedi(24)=.FALSE. ,
(PID.TID 0000.0001) > PTRACERS_useKPP(24)=.FALSE.  ,
(PID.TID 0000.0001) > PTRACERS_initialFile(24)='input/loc1_biomass_run83_janprof.bin',
(PID.TID 0000.0001) ># tracer 25 - PHYT04
(PID.TID 0000.0001) > PTRACERS_names(25)='Phy4',
(PID.TID 0000.0001) > PTRACERS_units(25)='mmol P/m^3'
(PID.TID 0000.0001) > PTRACERS_advScheme(25)=33,
(PID.TID 0000.0001) > PTRACERS_diffKh(25)=0.E3,
(PID.TID 0000.0001) > PTRACERS_diffKr(25)=1.E-5,
(PID.TID 0000.0001) > PTRACERS_useGMRedi(25)=.FALSE. ,
(PID.TID 0000.0001) > PTRACERS_useKPP(25)=.FALSE.  ,
(PID.TID 0000.0001) > PTRACERS_initialFile(25)='input/loc1_biomass_run83_janprof.bin',
(PID.TID 0000.0001) ># tracer 26 - PHYT05
(PID.TID 0000.0001) > PTRACERS_names(26)='Phy5',
(PID.TID 0000.0001) > PTRACERS_units(26)='mmol P/m^3'
(PID.TID 0000.0001) > PTRACERS_advScheme(26)=33,
(PID.TID 0000.0001) > PTRACERS_diffKh(26)=0.E3,
(PID.TID 0000.0001) > PTRACERS_diffKr(26)=1.E-5,
(PID.TID 0000.0001) > PTRACERS_useGMRedi(26)=.FALSE. ,
(PID.TID 0000.0001) > PTRACERS_useKPP(26)=.FALSE.  ,
(PID.TID 0000.0001) > PTRACERS_initialFile(26)='input/loc1_biomass_run83_janprof.bin',
(PID.TID 0000.0001) ># tracer 27 - PHYT06
(PID.TID 0000.0001) > PTRACERS_names(27)='Phy6',
(PID.TID 0000.0001) > PTRACERS_units(27)='mmol P/m^3'
(PID.TID 0000.0001) > PTRACERS_advScheme(27)=33,
(PID.TID 0000.0001) > PTRACERS_diffKh(27)=0.E3,
(PID.TID 0000.0001) > PTRACERS_diffKr(27)=1.E-5,
(PID.TID 0000.0001) > PTRACERS_useGMRedi(27)=.FALSE. ,
(PID.TID 0000.0001) > PTRACERS_useKPP(27)=.FALSE.  ,
(PID.TID 0000.0001) > PTRACERS_initialFile(27)='input/loc1_biomass_run83_janprof.bin',
(PID.TID 0000.0001) ># tracer 28 - PHYT07
(PID.TID 0000.0001) > PTRACERS_names(28)='Phy7',
(PID.TID 0000.0001) > PTRACERS_units(28)='mmol P/m^3'
(PID.TID 0000.0001) > PTRACERS_advScheme(28)=33,
(PID.TID 0000.0001) > PTRACERS_diffKh(28)=0.E3,
(PID.TID 0000.0001) > PTRACERS_diffKr(28)=1.E-5,
(PID.TID 0000.0001) > PTRACERS_useGMRedi(28)=.FALSE. ,
(PID.TID 0000.0001) > PTRACERS_useKPP(28)=.FALSE.  ,
(PID.TID 0000.0001) > PTRACERS_initialFile(28)='input/loc1_biomass_run83_janprof.bin',
(PID.TID 0000.0001) ># tracer 29 - PHYT08
(PID.TID 0000.0001) > PTRACERS_names(29)='Phy8',
(PID.TID 0000.0001) > PTRACERS_units(29)='mmol P/m^3'
(PID.TID 0000.0001) > PTRACERS_advScheme(29)=33,
(PID.TID 0000.0001) > PTRACERS_diffKh(29)=0.E3,
(PID.TID 0000.0001) > PTRACERS_diffKr(29)=1.E-5,
(PID.TID 0000.0001) > PTRACERS_useGMRedi(29)=.FALSE. ,
(PID.TID 0000.0001) > PTRACERS_useKPP(29)=.FALSE.  ,
(PID.TID 0000.0001) > PTRACERS_initialFile(29)='input/loc1_biomass_run83_janprof.bin',
(PID.TID 0000.0001) ># tracer 30 - PHYT09
(PID.TID 0000.0001) > PTRACERS_names(30)='Phy9',
(PID.TID 0000.0001) > PTRACERS_units(30)='mmol P/m^3'
(PID.TID 0000.0001) > PTRACERS_advScheme(30)=33,
(PID.TID 0000.0001) > PTRACERS_diffKh(30)=0.E3,
(PID.TID 0000.0001) > PTRACERS_diffKr(30)=1.E-5,
(PID.TID 0000.0001) > PTRACERS_useGMRedi(30)=.FALSE. ,
(PID.TID 0000.0001) > PTRACERS_useKPP(30)=.FALSE.  ,
(PID.TID 0000.0001) > PTRACERS_initialFile(30)='input/loc1_biomass_run83_janprof.bin',
(PID.TID 0000.0001) ># tracer 31 - PHYT10
(PID.TID 0000.0001) > PTRACERS_names(31)='Phy10',
(PID.TID 0000.0001) > PTRACERS_units(31)='mmol P/m^3'
(PID.TID 0000.0001) > PTRACERS_advScheme(31)=33,
(PID.TID 0000.0001) > PTRACERS_diffKh(31)=0.E3,
(PID.TID 0000.0001) > PTRACERS_diffKr(31)=1.E-5,
(PID.TID 0000.0001) > PTRACERS_useGMRedi(31)=.FALSE. ,
(PID.TID 0000.0001) > PTRACERS_useKPP(31)=.FALSE.  ,
(PID.TID 0000.0001) > PTRACERS_initialFile(31)='input/loc1_biomass_run83_janprof.bin',
(PID.TID 0000.0001) ># tracer 32 - PHYT11
(PID.TID 0000.0001) > PTRACERS_names(32)='Phy11',
(PID.TID 0000.0001) > PTRACERS_units(32)='mmol P/m^3'
(PID.TID 0000.0001) > PTRACERS_advScheme(32)=33,
(PID.TID 0000.0001) > PTRACERS_diffKh(32)=0.E3,
(PID.TID 0000.0001) > PTRACERS_diffKr(32)=1.E-5,
(PID.TID 0000.0001) > PTRACERS_useGMRedi(32)=.FALSE. ,
(PID.TID 0000.0001) > PTRACERS_useKPP(32)=.FALSE.  ,
(PID.TID 0000.0001) > PTRACERS_initialFile(32)='input/loc1_biomass_run83_janprof.bin',
(PID.TID 0000.0001) ># tracer 0 - PHYT12
(PID.TID 0000.0001) > PTRACERS_names(33)='Phy12',
(PID.TID 0000.0001) > PTRACERS_units(33)='mmol P/m^3'
(PID.TID 0000.0001) > PTRACERS_advScheme(33)=33,
(PID.TID 0000.0001) > PTRACERS_diffKh(33)=0.E3,
(PID.TID 0000.0001) > PTRACERS_diffKr(33)=1.E-5,
(PID.TID 0000.0001) > PTRACERS_useGMRedi(33)=.FALSE. ,
(PID.TID 0000.0001) > PTRACERS_useKPP(33)=.FALSE.  ,
(PID.TID 0000.0001) > PTRACERS_initialFile(33)='input/loc1_biomass_run83_janprof.bin',
(PID.TID 0000.0001) ># tracer 34 - PHYT13
(PID.TID 0000.0001) > PTRACERS_names(34)='Phy13',
(PID.TID 0000.0001) > PTRACERS_units(34)='mmol P/m^3'
(PID.TID 0000.0001) > PTRACERS_advScheme(34)=33,
(PID.TID 0000.0001) > PTRACERS_diffKh(34)=0.E3,
(PID.TID 0000.0001) > PTRACERS_diffKr(34)=1.E-5,
(PID.TID 0000.0001) > PTRACERS_useGMRedi(34)=.FALSE. ,
(PID.TID 0000.0001) > PTRACERS_useKPP(34)=.FALSE.  ,
(PID.TID 0000.0001) > PTRACERS_initialFile(34)='input/loc1_biomass_run83_janprof.bin',
(PID.TID 0000.0001) ># tracer 35 - PHYT14
(PID.TID 0000.0001) > PTRACERS_names(35)='Phy14',
(PID.TID 0000.0001) > PTRACERS_units(35)='mmol P/m^3'
(PID.TID 0000.0001) > PTRACERS_advScheme(35)=33,
(PID.TID 0000.0001) > PTRACERS_diffKh(35)=0.E3,
(PID.TID 0000.0001) > PTRACERS_diffKr(35)=1.E-5,
(PID.TID 0000.0001) > PTRACERS_useGMRedi(35)=.FALSE. ,
(PID.TID 0000.0001) > PTRACERS_useKPP(35)=.FALSE.  ,
(PID.TID 0000.0001) > PTRACERS_initialFile(35)='input/loc1_biomass_run83_janprof.bin',
(PID.TID 0000.0001) ># tracer 36 - PHYT15
(PID.TID 0000.0001) > PTRACERS_names(36)='Phy15',
(PID.TID 0000.0001) > PTRACERS_units(36)='mmol P/m^3'
(PID.TID 0000.0001) > PTRACERS_advScheme(36)=33,
(PID.TID 0000.0001) > PTRACERS_diffKh(36)=0.E3,
(PID.TID 0000.0001) > PTRACERS_diffKr(36)=1.E-5,
(PID.TID 0000.0001) > PTRACERS_useGMRedi(36)=.FALSE. ,
(PID.TID 0000.0001) > PTRACERS_useKPP(36)=.FALSE.  ,
(PID.TID 0000.0001) > PTRACERS_initialFile(36)='input/loc1_biomass_run83_janprof.bin',
(PID.TID 0000.0001) ># tracer 37 - PHYT16
(PID.TID 0000.0001) > PTRACERS_names(37)='Phy16',
(PID.TID 0000.0001) > PTRACERS_units(37)='mmol P/m^3'
(PID.TID 0000.0001) > PTRACERS_advScheme(37)=33,
(PID.TID 0000.0001) > PTRACERS_diffKh(37)=0.E3,
(PID.TID 0000.0001) > PTRACERS_diffKr(37)=1.E-5,
(PID.TID 0000.0001) > PTRACERS_useGMRedi(37)=.FALSE. ,
(PID.TID 0000.0001) > PTRACERS_useKPP(37)=.FALSE.  ,
(PID.TID 0000.0001) > PTRACERS_initialFile(37)='input/loc1_biomass_run83_janprof.bin',
(PID.TID 0000.0001) ># tracer 38 - PHYT17
(PID.TID 0000.0001) > PTRACERS_names(38)='Phy17',
(PID.TID 0000.0001) > PTRACERS_units(38)='mmol P/m^3'
(PID.TID 0000.0001) > PTRACERS_advScheme(38)=33,
(PID.TID 0000.0001) > PTRACERS_diffKh(38)=0.E3,
(PID.TID 0000.0001) > PTRACERS_diffKr(38)=1.E-5,
(PID.TID 0000.0001) > PTRACERS_useGMRedi(38)=.FALSE. ,
(PID.TID 0000.0001) > PTRACERS_useKPP(38)=.FALSE.  ,
(PID.TID 0000.0001) > PTRACERS_initialFile(38)='input/loc1_biomass_run83_janprof.bin',
(PID.TID 0000.0001) ># tracer 39 - PHYT18
(PID.TID 0000.0001) > PTRACERS_names(39)='Phy18',
(PID.TID 0000.0001) > PTRACERS_units(39)='mmol P/m^3'
(PID.TID 0000.0001) > PTRACERS_advScheme(39)=33,
(PID.TID 0000.0001) > PTRACERS_diffKh(39)=0.E3,
(PID.TID 0000.0001) > PTRACERS_diffKr(39)=1.E-5,
(PID.TID 0000.0001) > PTRACERS_useGMRedi(39)=.FALSE. ,
(PID.TID 0000.0001) > PTRACERS_useKPP(39)=.FALSE.  ,
(PID.TID 0000.0001) > PTRACERS_initialFile(39)='input/loc1_biomass_run83_janprof.bin',
(PID.TID 0000.0001) ># tracer 40 - PHYT19
(PID.TID 0000.0001) > PTRACERS_names(40)='Phy19',
(PID.TID 0000.0001) > PTRACERS_units(40)='mmol P/m^3'
(PID.TID 0000.0001) > PTRACERS_advScheme(40)=33,
(PID.TID 0000.0001) > PTRACERS_diffKh(40)=0.E3,
(PID.TID 0000.0001) > PTRACERS_diffKr(40)=1.E-5,
(PID.TID 0000.0001) > PTRACERS_useGMRedi(40)=.FALSE. ,
(PID.TID 0000.0001) > PTRACERS_useKPP(40)=.FALSE.  ,
(PID.TID 0000.0001) > PTRACERS_initialFile(40)='input/loc1_biomass_run83_janprof.bin',
(PID.TID 0000.0001) ># tracer 41 - PHYT20
(PID.TID 0000.0001) > PTRACERS_names(41)='Phy20',
(PID.TID 0000.0001) > PTRACERS_units(41)='mmol P/m^3'
(PID.TID 0000.0001) > PTRACERS_advScheme(41)=33,
(PID.TID 0000.0001) > PTRACERS_diffKh(41)=0.E3,
(PID.TID 0000.0001) > PTRACERS_diffKr(41)=1.E-5,
(PID.TID 0000.0001) > PTRACERS_useGMRedi(41)=.FALSE. ,
(PID.TID 0000.0001) > PTRACERS_useKPP(41)=.FALSE.  ,
(PID.TID 0000.0001) > PTRACERS_initialFile(41)='input/loc1_biomass_run83_janprof.bin',
(PID.TID 0000.0001) ># tracer 42 - PHYT21
(PID.TID 0000.0001) > PTRACERS_names(42)='Phy21',
(PID.TID 0000.0001) > PTRACERS_units(42)='mmol P/m^3'
(PID.TID 0000.0001) > PTRACERS_advScheme(42)=33,
(PID.TID 0000.0001) > PTRACERS_diffKh(42)=0.E3,
(PID.TID 0000.0001) > PTRACERS_diffKr(42)=1.E-5,
(PID.TID 0000.0001) > PTRACERS_useGMRedi(42)=.FALSE. ,
(PID.TID 0000.0001) > PTRACERS_useKPP(42)=.FALSE.  ,
(PID.TID 0000.0001) > PTRACERS_initialFile(42)='input/loc1_biomass_run83_janprof.bin',
(PID.TID 0000.0001) ># tracer 43 - PHYT22
(PID.TID 0000.0001) > PTRACERS_names(43)='Phy22',
(PID.TID 0000.0001) > PTRACERS_units(43)='mmol P/m^3'
(PID.TID 0000.0001) > PTRACERS_advScheme(43)=33,
(PID.TID 0000.0001) > PTRACERS_diffKh(43)=0.E3,
(PID.TID 0000.0001) > PTRACERS_diffKr(43)=1.E-5,
(PID.TID 0000.0001) > PTRACERS_useGMRedi(43)=.FALSE. ,
(PID.TID 0000.0001) > PTRACERS_useKPP(43)=.FALSE.  ,
(PID.TID 0000.0001) > PTRACERS_initialFile(43)='input/loc1_biomass_run83_janprof.bin',
(PID.TID 0000.0001) ># tracer 44 - PHYT23
(PID.TID 0000.0001) > PTRACERS_names(44)='Phy23',
(PID.TID 0000.0001) > PTRACERS_units(44)='mmol P/m^3'
(PID.TID 0000.0001) > PTRACERS_advScheme(44)=33,
(PID.TID 0000.0001) > PTRACERS_diffKh(44)=0.E3,
(PID.TID 0000.0001) > PTRACERS_diffKr(44)=1.E-5,
(PID.TID 0000.0001) > PTRACERS_useGMRedi(44)=.FALSE. ,
(PID.TID 0000.0001) > PTRACERS_useKPP(44)=.FALSE.  ,
(PID.TID 0000.0001) > PTRACERS_initialFile(44)='input/loc1_biomass_run83_janprof.bin',
(PID.TID 0000.0001) ># tracer 45 - PHYT24
(PID.TID 0000.0001) > PTRACERS_names(45)='Phy24',
(PID.TID 0000.0001) > PTRACERS_units(45)='mmol P/m^3'
(PID.TID 0000.0001) > PTRACERS_advScheme(45)=33,
(PID.TID 0000.0001) > PTRACERS_diffKh(45)=0.E3,
(PID.TID 0000.0001) > PTRACERS_diffKr(45)=1.E-5,
(PID.TID 0000.0001) > PTRACERS_useGMRedi(45)=.FALSE. ,
(PID.TID 0000.0001) > PTRACERS_useKPP(45)=.FALSE.  ,
(PID.TID 0000.0001) > PTRACERS_initialFile(45)='input/loc1_biomass_run83_janprof.bin',
(PID.TID 0000.0001) ># tracer 46 - PHYT25
(PID.TID 0000.0001) > PTRACERS_names(46)='Phy25',
(PID.TID 0000.0001) > PTRACERS_units(46)='mmol P/m^3'
(PID.TID 0000.0001) > PTRACERS_advScheme(46)=33,
(PID.TID 0000.0001) > PTRACERS_diffKh(46)=0.E3,
(PID.TID 0000.0001) > PTRACERS_diffKr(46)=1.E-5,
(PID.TID 0000.0001) > PTRACERS_useGMRedi(46)=.FALSE. ,
(PID.TID 0000.0001) > PTRACERS_useKPP(46)=.FALSE.  ,
(PID.TID 0000.0001) > PTRACERS_initialFile(46)='input/loc1_biomass_run83_janprof.bin',
(PID.TID 0000.0001) ># tracer 47 - PHYT26
(PID.TID 0000.0001) > PTRACERS_names(47)='Phy26',
(PID.TID 0000.0001) > PTRACERS_units(47)='mmol P/m^3'
(PID.TID 0000.0001) > PTRACERS_advScheme(47)=33,
(PID.TID 0000.0001) > PTRACERS_diffKh(47)=0.E3,
(PID.TID 0000.0001) > PTRACERS_diffKr(47)=1.E-5,
(PID.TID 0000.0001) > PTRACERS_useGMRedi(47)=.FALSE. ,
(PID.TID 0000.0001) > PTRACERS_useKPP(47)=.FALSE.  ,
(PID.TID 0000.0001) > PTRACERS_initialFile(47)='input/loc1_biomass_run83_janprof.bin',
(PID.TID 0000.0001) ># tracer 48 - PHYT27
(PID.TID 0000.0001) > PTRACERS_names(48)='Phy27',
(PID.TID 0000.0001) > PTRACERS_units(48)='mmol P/m^3'
(PID.TID 0000.0001) > PTRACERS_advScheme(48)=33,
(PID.TID 0000.0001) > PTRACERS_diffKh(48)=0.E3,
(PID.TID 0000.0001) > PTRACERS_diffKr(48)=1.E-5,
(PID.TID 0000.0001) > PTRACERS_useGMRedi(48)=.FALSE. ,
(PID.TID 0000.0001) > PTRACERS_useKPP(48)=.FALSE.  ,
(PID.TID 0000.0001) > PTRACERS_initialFile(48)='input/loc1_biomass_run83_janprof.bin',
(PID.TID 0000.0001) ># tracer 49 - PHYT28
(PID.TID 0000.0001) > PTRACERS_names(49)='Phy28',
(PID.TID 0000.0001) > PTRACERS_units(49)='mmol P/m^3'
(PID.TID 0000.0001) > PTRACERS_advScheme(49)=33,
(PID.TID 0000.0001) > PTRACERS_diffKh(49)=0.E3,
(PID.TID 0000.0001) > PTRACERS_diffKr(49)=1.E-5,
(PID.TID 0000.0001) > PTRACERS_useGMRedi(49)=.FALSE. ,
(PID.TID 0000.0001) > PTRACERS_useKPP(49)=.FALSE.  ,
(PID.TID 0000.0001) > PTRACERS_initialFile(49)='input/loc1_biomass_run83_janprof.bin',
(PID.TID 0000.0001) ># tracer 50 - PHYT29
(PID.TID 0000.0001) > PTRACERS_names(50)='Phy29',
(PID.TID 0000.0001) > PTRACERS_units(50)='mmol P/m^3'
(PID.TID 0000.0001) > PTRACERS_advScheme(50)=33,
(PID.TID 0000.0001) > PTRACERS_diffKh(50)=0.E3,
(PID.TID 0000.0001) > PTRACERS_diffKr(50)=1.E-5,
(PID.TID 0000.0001) > PTRACERS_useGMRedi(50)=.FALSE. ,
(PID.TID 0000.0001) > PTRACERS_useKPP(50)=.FALSE.  ,
(PID.TID 0000.0001) > PTRACERS_initialFile(50)='input/loc1_biomass_run83_janprof.bin',
(PID.TID 0000.0001) ># tracer 51 - PHY30
(PID.TID 0000.0001) > PTRACERS_names(51)='Phy30',
(PID.TID 0000.0001) > PTRACERS_units(51)='mmol P/m^3'
(PID.TID 0000.0001) > PTRACERS_advScheme(51)=33,
(PID.TID 0000.0001) > PTRACERS_diffKh(51)=0.E3,
(PID.TID 0000.0001) > PTRACERS_diffKr(51)=1.E-5,
(PID.TID 0000.0001) > PTRACERS_useGMRedi(51)=.FALSE. ,
(PID.TID 0000.0001) > PTRACERS_useKPP(51)=.FALSE.  ,
(PID.TID 0000.0001) > PTRACERS_initialFile(51)='input/loc1_biomass_run83_janprof.bin',
(PID.TID 0000.0001) ># tracer 52 - PHY31
(PID.TID 0000.0001) > PTRACERS_names(52)='Phy31',
(PID.TID 0000.0001) > PTRACERS_units(52)='mmol P/m^3'
(PID.TID 0000.0001) > PTRACERS_advScheme(52)=33,
(PID.TID 0000.0001) > PTRACERS_diffKh(52)=0.E3,
(PID.TID 0000.0001) > PTRACERS_diffKr(52)=1.E-5,
(PID.TID 0000.0001) > PTRACERS_useGMRedi(52)=.FALSE. ,
(PID.TID 0000.0001) > PTRACERS_useKPP(52)=.FALSE.  ,
(PID.TID 0000.0001) > PTRACERS_initialFile(52)='input/loc1_biomass_run83_janprof.bin',
(PID.TID 0000.0001) ># tracer 53 - PHY32
(PID.TID 0000.0001) > PTRACERS_names(53)='Phy32',
(PID.TID 0000.0001) > PTRACERS_units(53)='mmol P/m^3'
(PID.TID 0000.0001) > PTRACERS_advScheme(53)=33,
(PID.TID 0000.0001) > PTRACERS_diffKh(53)=0.E3,
(PID.TID 0000.0001) > PTRACERS_diffKr(53)=1.E-5,
(PID.TID 0000.0001) > PTRACERS_useGMRedi(53)=.FALSE. ,
(PID.TID 0000.0001) > PTRACERS_useKPP(53)=.FALSE.  ,
(PID.TID 0000.0001) > PTRACERS_initialFile(53)='input/loc1_biomass_run83_janprof.bin',
(PID.TID 0000.0001) ># tracer 54 - PHY33
(PID.TID 0000.0001) > PTRACERS_names(54)='Phy33',
(PID.TID 0000.0001) > PTRACERS_units(54)='mmol P/m^3'
(PID.TID 0000.0001) > PTRACERS_advScheme(54)=33,
(PID.TID 0000.0001) > PTRACERS_diffKh(54)=0.E3,
(PID.TID 0000.0001) > PTRACERS_diffKr(54)=1.E-5,
(PID.TID 0000.0001) > PTRACERS_useGMRedi(54)=.FALSE. ,
(PID.TID 0000.0001) > PTRACERS_useKPP(54)=.FALSE.  ,
(PID.TID 0000.0001) > PTRACERS_initialFile(54)='input/loc1_biomass_run83_janprof.bin',
(PID.TID 0000.0001) ># tracer 55 - PHY34
(PID.TID 0000.0001) > PTRACERS_names(55)='Phy34',
(PID.TID 0000.0001) > PTRACERS_units(55)='mmol P/m^3'
(PID.TID 0000.0001) > PTRACERS_advScheme(55)=33,
(PID.TID 0000.0001) > PTRACERS_diffKh(55)=0.E3,
(PID.TID 0000.0001) > PTRACERS_diffKr(55)=1.E-5,
(PID.TID 0000.0001) > PTRACERS_useGMRedi(55)=.FALSE. ,
(PID.TID 0000.0001) > PTRACERS_useKPP(55)=.FALSE.  ,
(PID.TID 0000.0001) > PTRACERS_initialFile(55)='input/loc1_biomass_run83_janprof.bin',
(PID.TID 0000.0001) ># tracer 56 - PHY35
(PID.TID 0000.0001) > PTRACERS_names(56)='Phy35',
(PID.TID 0000.0001) > PTRACERS_units(56)='mmol P/m^3'
(PID.TID 0000.0001) > PTRACERS_advScheme(56)=33,
(PID.TID 0000.0001) > PTRACERS_diffKh(56)=0.E3,
(PID.TID 0000.0001) > PTRACERS_diffKr(56)=1.E-5,
(PID.TID 0000.0001) > PTRACERS_useGMRedi(56)=.FALSE. ,
(PID.TID 0000.0001) > PTRACERS_useKPP(56)=.FALSE.  ,
(PID.TID 0000.0001) > PTRACERS_initialFile(56)='input/loc1_biomass_run83_janprof.bin',
(PID.TID 0000.0001) ># tracer 57 - PHY36
(PID.TID 0000.0001) > PTRACERS_names(57)='Phy36',
(PID.TID 0000.0001) > PTRACERS_units(57)='mmol P/m^3'
(PID.TID 0000.0001) > PTRACERS_advScheme(57)=33,
(PID.TID 0000.0001) > PTRACERS_diffKh(57)=0.E3,
(PID.TID 0000.0001) > PTRACERS_diffKr(57)=1.E-5,
(PID.TID 0000.0001) > PTRACERS_useGMRedi(57)=.FALSE. ,
(PID.TID 0000.0001) > PTRACERS_useKPP(57)=.FALSE.  ,
(PID.TID 0000.0001) > PTRACERS_initialFile(57)='input/loc1_biomass_run83_janprof.bin',
(PID.TID 0000.0001) ># tracer 58 - PHY37
(PID.TID 0000.0001) > PTRACERS_names(58)='Phy37',
(PID.TID 0000.0001) > PTRACERS_units(58)='mmol P/m^3'
(PID.TID 0000.0001) > PTRACERS_advScheme(58)=33,
(PID.TID 0000.0001) > PTRACERS_diffKh(58)=0.E3,
(PID.TID 0000.0001) > PTRACERS_diffKr(58)=1.E-5,
(PID.TID 0000.0001) > PTRACERS_useGMRedi(58)=.FALSE. ,
(PID.TID 0000.0001) > PTRACERS_useKPP(58)=.FALSE.  ,
(PID.TID 0000.0001) > PTRACERS_initialFile(58)='input/loc1_biomass_run83_janprof.bin',
(PID.TID 0000.0001) ># tracer 59 - PHY38
(PID.TID 0000.0001) > PTRACERS_names(59)='Phy38',
(PID.TID 0000.0001) > PTRACERS_units(59)='mmol P/m^3'
(PID.TID 0000.0001) > PTRACERS_advScheme(59)=33,
(PID.TID 0000.0001) > PTRACERS_diffKh(59)=0.E3,
(PID.TID 0000.0001) > PTRACERS_diffKr(59)=1.E-5,
(PID.TID 0000.0001) > PTRACERS_useGMRedi(59)=.FALSE. ,
(PID.TID 0000.0001) > PTRACERS_useKPP(59)=.FALSE.  ,
(PID.TID 0000.0001) > PTRACERS_initialFile(59)='input/loc1_biomass_run83_janprof.bin',
(PID.TID 0000.0001) ># tracer 60 - PHY39
(PID.TID 0000.0001) > PTRACERS_names(60)='Phy39',
(PID.TID 0000.0001) > PTRACERS_units(60)='mmol P/m^3'
(PID.TID 0000.0001) > PTRACERS_advScheme(60)=33,
(PID.TID 0000.0001) > PTRACERS_diffKh(60)=0.E3,
(PID.TID 0000.0001) > PTRACERS_diffKr(60)=1.E-5,
(PID.TID 0000.0001) > PTRACERS_useGMRedi(60)=.FALSE. ,
(PID.TID 0000.0001) > PTRACERS_useKPP(60)=.FALSE.  ,
(PID.TID 0000.0001) > PTRACERS_initialFile(60)='input/loc1_biomass_run83_janprof.bin',
(PID.TID 0000.0001) ># tracer 61 - PHY40
(PID.TID 0000.0001) > PTRACERS_names(61)='Phy40',
(PID.TID 0000.0001) > PTRACERS_units(61)='mmol P/m^3'
(PID.TID 0000.0001) > PTRACERS_advScheme(61)=33,
(PID.TID 0000.0001) > PTRACERS_diffKh(61)=0.E3,
(PID.TID 0000.0001) > PTRACERS_diffKr(61)=1.E-5,
(PID.TID 0000.0001) > PTRACERS_useGMRedi(61)=.FALSE. ,
(PID.TID 0000.0001) > PTRACERS_useKPP(61)=.FALSE.  ,
(PID.TID 0000.0001) > PTRACERS_initialFile(61)='input/loc1_biomass_run83_janprof.bin',
(PID.TID 0000.0001) ># tracer 62 - PHY41
(PID.TID 0000.0001) > PTRACERS_names(62)='Phy41',
(PID.TID 0000.0001) > PTRACERS_units(62)='mmol P/m^3'
(PID.TID 0000.0001) > PTRACERS_advScheme(62)=33,
(PID.TID 0000.0001) > PTRACERS_diffKh(62)=0.E3,
(PID.TID 0000.0001) > PTRACERS_diffKr(62)=1.E-5,
(PID.TID 0000.0001) > PTRACERS_useGMRedi(62)=.FALSE. ,
(PID.TID 0000.0001) > PTRACERS_useKPP(62)=.FALSE.  ,
(PID.TID 0000.0001) > PTRACERS_initialFile(62)='input/loc1_biomass_run83_janprof.bin',
(PID.TID 0000.0001) ># tracer 63 - PHY42
(PID.TID 0000.0001) > PTRACERS_names(63)='Phy42',
(PID.TID 0000.0001) > PTRACERS_units(63)='mmol P/m^3'
(PID.TID 0000.0001) > PTRACERS_advScheme(63)=33,
(PID.TID 0000.0001) > PTRACERS_diffKh(63)=0.E3,
(PID.TID 0000.0001) > PTRACERS_diffKr(63)=1.E-5,
(PID.TID 0000.0001) > PTRACERS_useGMRedi(63)=.FALSE. ,
(PID.TID 0000.0001) > PTRACERS_useKPP(63)=.FALSE.  ,
(PID.TID 0000.0001) > PTRACERS_initialFile(63)='input/loc1_biomass_run83_janprof.bin',
(PID.TID 0000.0001) ># tracer 64 - PHY43
(PID.TID 0000.0001) > PTRACERS_names(64)='Phy43',
(PID.TID 0000.0001) > PTRACERS_units(64)='mmol P/m^3'
(PID.TID 0000.0001) > PTRACERS_advScheme(64)=33,
(PID.TID 0000.0001) > PTRACERS_diffKh(64)=0.E3,
(PID.TID 0000.0001) > PTRACERS_diffKr(64)=1.E-5,
(PID.TID 0000.0001) > PTRACERS_useGMRedi(64)=.FALSE. ,
(PID.TID 0000.0001) > PTRACERS_useKPP(64)=.FALSE.  ,
(PID.TID 0000.0001) > PTRACERS_initialFile(64)='input/loc1_biomass_run83_janprof.bin',
(PID.TID 0000.0001) ># tracer 65 - PHY44
(PID.TID 0000.0001) > PTRACERS_names(65)='Phy44',
(PID.TID 0000.0001) > PTRACERS_units(65)='mmol P/m^3'
(PID.TID 0000.0001) > PTRACERS_advScheme(65)=33,
(PID.TID 0000.0001) > PTRACERS_diffKh(65)=0.E3,
(PID.TID 0000.0001) > PTRACERS_diffKr(65)=1.E-5,
(PID.TID 0000.0001) > PTRACERS_useGMRedi(65)=.FALSE. ,
(PID.TID 0000.0001) > PTRACERS_useKPP(65)=.FALSE.  ,
(PID.TID 0000.0001) > PTRACERS_initialFile(65)='input/loc1_biomass_run83_janprof.bin',
(PID.TID 0000.0001) ># tracer 66 - PHY45
(PID.TID 0000.0001) > PTRACERS_names(66)='Phy45',
(PID.TID 0000.0001) > PTRACERS_units(66)='mmol P/m^3'
(PID.TID 0000.0001) > PTRACERS_advScheme(66)=33,
(PID.TID 0000.0001) > PTRACERS_diffKh(66)=0.E3,
(PID.TID 0000.0001) > PTRACERS_diffKr(66)=1.E-5,
(PID.TID 0000.0001) > PTRACERS_useGMRedi(66)=.FALSE. ,
(PID.TID 0000.0001) > PTRACERS_useKPP(66)=.FALSE.  ,
(PID.TID 0000.0001) > PTRACERS_initialFile(66)='input/loc1_biomass_run83_janprof.bin',
(PID.TID 0000.0001) ># tracer 67 - PHY46
(PID.TID 0000.0001) > PTRACERS_names(67)='Phy46',
(PID.TID 0000.0001) > PTRACERS_units(67)='mmol P/m^3'
(PID.TID 0000.0001) > PTRACERS_advScheme(67)=33,
(PID.TID 0000.0001) > PTRACERS_diffKh(67)=0.E3,
(PID.TID 0000.0001) > PTRACERS_diffKr(67)=1.E-5,
(PID.TID 0000.0001) > PTRACERS_useGMRedi(67)=.FALSE. ,
(PID.TID 0000.0001) > PTRACERS_useKPP(67)=.FALSE.  ,
(PID.TID 0000.0001) > PTRACERS_initialFile(67)='input/loc1_biomass_run83_janprof.bin',
(PID.TID 0000.0001) ># tracer 68 - PHY47
(PID.TID 0000.0001) > PTRACERS_names(68)='Phy47',
(PID.TID 0000.0001) > PTRACERS_units(68)='mmol P/m^3'
(PID.TID 0000.0001) > PTRACERS_advScheme(68)=33,
(PID.TID 0000.0001) > PTRACERS_diffKh(68)=0.E3,
(PID.TID 0000.0001) > PTRACERS_diffKr(68)=1.E-5,
(PID.TID 0000.0001) > PTRACERS_useGMRedi(68)=.FALSE. ,
(PID.TID 0000.0001) > PTRACERS_useKPP(68)=.FALSE.  ,
(PID.TID 0000.0001) > PTRACERS_initialFile(68)='input/loc1_biomass_run83_janprof.bin',
(PID.TID 0000.0001) ># tracer 69 - PHY48
(PID.TID 0000.0001) > PTRACERS_names(69)='Phy48',
(PID.TID 0000.0001) > PTRACERS_units(69)='mmol P/m^3'
(PID.TID 0000.0001) > PTRACERS_advScheme(69)=33,
(PID.TID 0000.0001) > PTRACERS_diffKh(69)=0.E3,
(PID.TID 0000.0001) > PTRACERS_diffKr(69)=1.E-5,
(PID.TID 0000.0001) > PTRACERS_useGMRedi(69)=.FALSE. ,
(PID.TID 0000.0001) > PTRACERS_useKPP(69)=.FALSE.  ,
(PID.TID 0000.0001) > PTRACERS_initialFile(69)='input/loc1_biomass_run83_janprof.bin',
(PID.TID 0000.0001) ># tracer 70 - PHY49
(PID.TID 0000.0001) > PTRACERS_names(70)='Phy49',
(PID.TID 0000.0001) > PTRACERS_units(70)='mmol P/m^3'
(PID.TID 0000.0001) > PTRACERS_advScheme(70)=33,
(PID.TID 0000.0001) > PTRACERS_diffKh(70)=0.E3,
(PID.TID 0000.0001) > PTRACERS_diffKr(70)=1.E-5,
(PID.TID 0000.0001) > PTRACERS_useGMRedi(70)=.FALSE. ,
(PID.TID 0000.0001) > PTRACERS_useKPP(70)=.FALSE.  ,
(PID.TID 0000.0001) > PTRACERS_initialFile(70)='input/loc1_biomass_run83_janprof.bin',
(PID.TID 0000.0001) ># tracer 71 - PHY50
(PID.TID 0000.0001) > PTRACERS_names(71)='Phy50',
(PID.TID 0000.0001) > PTRACERS_units(71)='mmol P/m^3'
(PID.TID 0000.0001) > PTRACERS_advScheme(71)=33,
(PID.TID 0000.0001) > PTRACERS_diffKh(71)=0.E3,
(PID.TID 0000.0001) > PTRACERS_diffKr(71)=1.E-5,
(PID.TID 0000.0001) > PTRACERS_useGMRedi(71)=.FALSE. ,
(PID.TID 0000.0001) > PTRACERS_useKPP(71)=.FALSE.  ,
(PID.TID 0000.0001) > PTRACERS_initialFile(71)='input/loc1_biomass_run83_janprof.bin',
(PID.TID 0000.0001) ># tracer 72 - PHY51
(PID.TID 0000.0001) > PTRACERS_names(72)='Phy51',
(PID.TID 0000.0001) > PTRACERS_units(72)='mmol P/m^3'
(PID.TID 0000.0001) > PTRACERS_advScheme(72)=33,
(PID.TID 0000.0001) > PTRACERS_diffKh(72)=0.E3,
(PID.TID 0000.0001) > PTRACERS_diffKr(72)=1.E-5,
(PID.TID 0000.0001) > PTRACERS_useGMRedi(72)=.FALSE. ,
(PID.TID 0000.0001) > PTRACERS_useKPP(72)=.FALSE.  ,
(PID.TID 0000.0001) > PTRACERS_initialFile(72)='input/loc1_biomass_run83_janprof.bin',
(PID.TID 0000.0001) ># tracer 73 - PHY52
(PID.TID 0000.0001) > PTRACERS_names(73)='Phy52',
(PID.TID 0000.0001) > PTRACERS_units(73)='mmol P/m^3'
(PID.TID 0000.0001) > PTRACERS_advScheme(73)=33,
(PID.TID 0000.0001) > PTRACERS_diffKh(73)=0.E3,
(PID.TID 0000.0001) > PTRACERS_diffKr(73)=1.E-5,
(PID.TID 0000.0001) > PTRACERS_useGMRedi(73)=.FALSE. ,
(PID.TID 0000.0001) > PTRACERS_useKPP(73)=.FALSE.  ,
(PID.TID 0000.0001) > PTRACERS_initialFile(73)='input/loc1_biomass_run83_janprof.bin',
(PID.TID 0000.0001) ># tracer 74 - PHY53
(PID.TID 0000.0001) > PTRACERS_names(74)='Phy53',
(PID.TID 0000.0001) > PTRACERS_units(74)='mmol P/m^3'
(PID.TID 0000.0001) > PTRACERS_advScheme(74)=33,
(PID.TID 0000.0001) > PTRACERS_diffKh(74)=0.E3,
(PID.TID 0000.0001) > PTRACERS_diffKr(74)=1.E-5,
(PID.TID 0000.0001) > PTRACERS_useGMRedi(74)=.FALSE. ,
(PID.TID 0000.0001) > PTRACERS_useKPP(74)=.FALSE.  ,
(PID.TID 0000.0001) > PTRACERS_initialFile(74)='input/loc1_biomass_run83_janprof.bin',
(PID.TID 0000.0001) ># tracer 75 - PHY54
(PID.TID 0000.0001) > PTRACERS_names(75)='Phy54',
(PID.TID 0000.0001) > PTRACERS_units(75)='mmol P/m^3'
(PID.TID 0000.0001) > PTRACERS_advScheme(75)=33,
(PID.TID 0000.0001) > PTRACERS_diffKh(75)=0.E3,
(PID.TID 0000.0001) > PTRACERS_diffKr(75)=1.E-5,
(PID.TID 0000.0001) > PTRACERS_useGMRedi(75)=.FALSE. ,
(PID.TID 0000.0001) > PTRACERS_useKPP(75)=.FALSE.  ,
(PID.TID 0000.0001) > PTRACERS_initialFile(75)='input/loc1_biomass_run83_janprof.bin',
(PID.TID 0000.0001) ># tracer 76 - PHY55
(PID.TID 0000.0001) > PTRACERS_names(76)='Phy55',
(PID.TID 0000.0001) > PTRACERS_units(76)='mmol P/m^3'
(PID.TID 0000.0001) > PTRACERS_advScheme(76)=33,
(PID.TID 0000.0001) > PTRACERS_diffKh(76)=0.E3,
(PID.TID 0000.0001) > PTRACERS_diffKr(76)=1.E-5,
(PID.TID 0000.0001) > PTRACERS_useGMRedi(76)=.FALSE. ,
(PID.TID 0000.0001) > PTRACERS_useKPP(76)=.FALSE.  ,
(PID.TID 0000.0001) > PTRACERS_initialFile(76)='input/loc1_biomass_run83_janprof.bin',
(PID.TID 0000.0001) ># tracer 77 - PHY56
(PID.TID 0000.0001) > PTRACERS_names(77)='Phy56',
(PID.TID 0000.0001) > PTRACERS_units(77)='mmol P/m^3'
(PID.TID 0000.0001) > PTRACERS_advScheme(77)=33,
(PID.TID 0000.0001) > PTRACERS_diffKh(77)=0.E3,
(PID.TID 0000.0001) > PTRACERS_diffKr(77)=1.E-5,
(PID.TID 0000.0001) > PTRACERS_useGMRedi(77)=.FALSE. ,
(PID.TID 0000.0001) > PTRACERS_useKPP(77)=.FALSE.  ,
(PID.TID 0000.0001) > PTRACERS_initialFile(77)='input/loc1_biomass_run83_janprof.bin',
(PID.TID 0000.0001) ># tracer 78 - PHY57
(PID.TID 0000.0001) > PTRACERS_names(78)='Phy57',
(PID.TID 0000.0001) > PTRACERS_units(78)='mmol P/m^3'
(PID.TID 0000.0001) > PTRACERS_advScheme(78)=33,
(PID.TID 0000.0001) > PTRACERS_diffKh(78)=0.E3,
(PID.TID 0000.0001) > PTRACERS_diffKr(78)=1.E-5,
(PID.TID 0000.0001) > PTRACERS_useGMRedi(78)=.FALSE. ,
(PID.TID 0000.0001) > PTRACERS_useKPP(78)=.FALSE.  ,
(PID.TID 0000.0001) > PTRACERS_initialFile(78)='input/loc1_biomass_run83_janprof.bin',
(PID.TID 0000.0001) ># tracer 79 - PHY58
(PID.TID 0000.0001) > PTRACERS_names(79)='Phy58',
(PID.TID 0000.0001) > PTRACERS_units(79)='mmol P/m^3'
(PID.TID 0000.0001) > PTRACERS_advScheme(79)=33,
(PID.TID 0000.0001) > PTRACERS_diffKh(79)=0.E3,
(PID.TID 0000.0001) > PTRACERS_diffKr(79)=1.E-5,
(PID.TID 0000.0001) > PTRACERS_useGMRedi(79)=.FALSE. ,
(PID.TID 0000.0001) > PTRACERS_useKPP(79)=.FALSE.  ,
(PID.TID 0000.0001) > PTRACERS_initialFile(79)='input/loc1_biomass_run83_janprof.bin',
(PID.TID 0000.0001) ># tracer 80 - PHY59
(PID.TID 0000.0001) > PTRACERS_names(80)='Phy59',
(PID.TID 0000.0001) > PTRACERS_units(80)='mmol P/m^3'
(PID.TID 0000.0001) > PTRACERS_advScheme(80)=33,
(PID.TID 0000.0001) > PTRACERS_diffKh(80)=0.E3,
(PID.TID 0000.0001) > PTRACERS_diffKr(80)=1.E-5,
(PID.TID 0000.0001) > PTRACERS_useGMRedi(80)=.FALSE. ,
(PID.TID 0000.0001) > PTRACERS_useKPP(80)=.FALSE.  ,
(PID.TID 0000.0001) > PTRACERS_initialFile(80)='input/loc1_biomass_run83_janprof.bin',
(PID.TID 0000.0001) ># tracer 81 - PHY60
(PID.TID 0000.0001) > PTRACERS_names(81)='Phy60',
(PID.TID 0000.0001) > PTRACERS_units(81)='mmol P/m^3'
(PID.TID 0000.0001) > PTRACERS_advScheme(81)=33,
(PID.TID 0000.0001) > PTRACERS_diffKh(81)=0.E3,
(PID.TID 0000.0001) > PTRACERS_diffKr(81)=1.E-5,
(PID.TID 0000.0001) > PTRACERS_useGMRedi(81)=.FALSE. ,
(PID.TID 0000.0001) > PTRACERS_useKPP(81)=.FALSE.  ,
(PID.TID 0000.0001) > PTRACERS_initialFile(81)='input/loc1_biomass_run83_janprof.bin',
(PID.TID 0000.0001) ># tracer 82 - PHY61
(PID.TID 0000.0001) > PTRACERS_names(82)='Phy61',
(PID.TID 0000.0001) > PTRACERS_units(82)='mmol P/m^3'
(PID.TID 0000.0001) > PTRACERS_advScheme(82)=33,
(PID.TID 0000.0001) > PTRACERS_diffKh(82)=0.E3,
(PID.TID 0000.0001) > PTRACERS_diffKr(82)=1.E-5,
(PID.TID 0000.0001) > PTRACERS_useGMRedi(82)=.FALSE. ,
(PID.TID 0000.0001) > PTRACERS_useKPP(82)=.FALSE.  ,
(PID.TID 0000.0001) > PTRACERS_initialFile(82)='input/loc1_biomass_run83_janprof.bin',
(PID.TID 0000.0001) ># tracer 83 - PHY62
(PID.TID 0000.0001) > PTRACERS_names(83)='Phy62',
(PID.TID 0000.0001) > PTRACERS_units(83)='mmol P/m^3'
(PID.TID 0000.0001) > PTRACERS_advScheme(83)=33,
(PID.TID 0000.0001) > PTRACERS_diffKh(83)=0.E3,
(PID.TID 0000.0001) > PTRACERS_diffKr(83)=1.E-5,
(PID.TID 0000.0001) > PTRACERS_useGMRedi(83)=.FALSE. ,
(PID.TID 0000.0001) > PTRACERS_useKPP(83)=.FALSE.  ,
(PID.TID 0000.0001) > PTRACERS_initialFile(83)='input/loc1_biomass_run83_janprof.bin',
(PID.TID 0000.0001) ># tracer 84 - PHY63
(PID.TID 0000.0001) > PTRACERS_names(84)='Phy63',
(PID.TID 0000.0001) > PTRACERS_units(84)='mmol P/m^3'
(PID.TID 0000.0001) > PTRACERS_advScheme(84)=33,
(PID.TID 0000.0001) > PTRACERS_diffKh(84)=0.E3,
(PID.TID 0000.0001) > PTRACERS_diffKr(84)=1.E-5,
(PID.TID 0000.0001) > PTRACERS_useGMRedi(84)=.FALSE. ,
(PID.TID 0000.0001) > PTRACERS_useKPP(84)=.FALSE.  ,
(PID.TID 0000.0001) > PTRACERS_initialFile(84)='input/loc1_biomass_run83_janprof.bin',
(PID.TID 0000.0001) ># tracer 85 - PHY64
(PID.TID 0000.0001) > PTRACERS_names(85)='Phy64',
(PID.TID 0000.0001) > PTRACERS_units(85)='mmol P/m^3'
(PID.TID 0000.0001) > PTRACERS_advScheme(85)=33,
(PID.TID 0000.0001) > PTRACERS_diffKh(85)=0.E3,
(PID.TID 0000.0001) > PTRACERS_diffKr(85)=1.E-5,
(PID.TID 0000.0001) > PTRACERS_useGMRedi(85)=.FALSE. ,
(PID.TID 0000.0001) > PTRACERS_useKPP(85)=.FALSE.  ,
(PID.TID 0000.0001) > PTRACERS_initialFile(85)='input/loc1_biomass_run83_janprof.bin',
(PID.TID 0000.0001) ># tracer 86 - PHY65
(PID.TID 0000.0001) > PTRACERS_names(86)='Phy65',
(PID.TID 0000.0001) > PTRACERS_units(86)='mmol P/m^3'
(PID.TID 0000.0001) > PTRACERS_advScheme(86)=33,
(PID.TID 0000.0001) > PTRACERS_diffKh(86)=0.E3,
(PID.TID 0000.0001) > PTRACERS_diffKr(86)=1.E-5,
(PID.TID 0000.0001) > PTRACERS_useGMRedi(86)=.FALSE. ,
(PID.TID 0000.0001) > PTRACERS_useKPP(86)=.FALSE.  ,
(PID.TID 0000.0001) > PTRACERS_initialFile(86)='input/loc1_biomass_run83_janprof.bin',
(PID.TID 0000.0001) ># tracer 87 - PHY66
(PID.TID 0000.0001) > PTRACERS_names(87)='Phy66',
(PID.TID 0000.0001) > PTRACERS_units(87)='mmol P/m^3'
(PID.TID 0000.0001) > PTRACERS_advScheme(87)=33,
(PID.TID 0000.0001) > PTRACERS_diffKh(87)=0.E3,
(PID.TID 0000.0001) > PTRACERS_diffKr(87)=1.E-5,
(PID.TID 0000.0001) > PTRACERS_useGMRedi(87)=.FALSE. ,
(PID.TID 0000.0001) > PTRACERS_useKPP(87)=.FALSE.  ,
(PID.TID 0000.0001) > PTRACERS_initialFile(87)='input/loc1_biomass_run83_janprof.bin',
(PID.TID 0000.0001) ># tracer 88 - PHY67
(PID.TID 0000.0001) > PTRACERS_names(88)='Phy67',
(PID.TID 0000.0001) > PTRACERS_units(88)='mmol P/m^3'
(PID.TID 0000.0001) > PTRACERS_advScheme(88)=33,
(PID.TID 0000.0001) > PTRACERS_diffKh(88)=0.E3,
(PID.TID 0000.0001) > PTRACERS_diffKr(88)=1.E-5,
(PID.TID 0000.0001) > PTRACERS_useGMRedi(88)=.FALSE. ,
(PID.TID 0000.0001) > PTRACERS_useKPP(88)=.FALSE.  ,
(PID.TID 0000.0001) > PTRACERS_initialFile(88)='input/loc1_biomass_run83_janprof.bin',
(PID.TID 0000.0001) ># tracer 89 - PHY68
(PID.TID 0000.0001) > PTRACERS_names(89)='Phy68',
(PID.TID 0000.0001) > PTRACERS_units(89)='mmol P/m^3'
(PID.TID 0000.0001) > PTRACERS_advScheme(89)=33,
(PID.TID 0000.0001) > PTRACERS_diffKh(89)=0.E3,
(PID.TID 0000.0001) > PTRACERS_diffKr(89)=1.E-5,
(PID.TID 0000.0001) > PTRACERS_useGMRedi(89)=.FALSE. ,
(PID.TID 0000.0001) > PTRACERS_useKPP(89)=.FALSE.  ,
(PID.TID 0000.0001) > PTRACERS_initialFile(89)='input/loc1_biomass_run83_janprof.bin',
(PID.TID 0000.0001) ># tracer 90 - PHY69
(PID.TID 0000.0001) > PTRACERS_names(90)='Phy69',
(PID.TID 0000.0001) > PTRACERS_units(90)='mmol P/m^3'
(PID.TID 0000.0001) > PTRACERS_advScheme(90)=33,
(PID.TID 0000.0001) > PTRACERS_diffKh(90)=0.E3,
(PID.TID 0000.0001) > PTRACERS_diffKr(90)=1.E-5,
(PID.TID 0000.0001) > PTRACERS_useGMRedi(90)=.FALSE. ,
(PID.TID 0000.0001) > PTRACERS_useKPP(90)=.FALSE.  ,
(PID.TID 0000.0001) > PTRACERS_initialFile(90)='input/loc1_biomass_run83_janprof.bin',
(PID.TID 0000.0001) ># tracer 91 - PHY70
(PID.TID 0000.0001) > PTRACERS_names(91)='Phy70',
(PID.TID 0000.0001) > PTRACERS_units(91)='mmol P/m^3'
(PID.TID 0000.0001) > PTRACERS_advScheme(91)=33,
(PID.TID 0000.0001) > PTRACERS_diffKh(91)=0.E3,
(PID.TID 0000.0001) > PTRACERS_diffKr(91)=1.E-5,
(PID.TID 0000.0001) > PTRACERS_useGMRedi(91)=.FALSE. ,
(PID.TID 0000.0001) > PTRACERS_useKPP(91)=.FALSE.  ,
(PID.TID 0000.0001) > PTRACERS_initialFile(91)='input/loc1_biomass_run83_janprof.bin',
(PID.TID 0000.0001) ># tracer 92 - PHY71
(PID.TID 0000.0001) > PTRACERS_names(92)='Phy71',
(PID.TID 0000.0001) > PTRACERS_units(92)='mmol P/m^3'
(PID.TID 0000.0001) > PTRACERS_advScheme(92)=33,
(PID.TID 0000.0001) > PTRACERS_diffKh(92)=0.E3,
(PID.TID 0000.0001) > PTRACERS_diffKr(92)=1.E-5,
(PID.TID 0000.0001) > PTRACERS_useGMRedi(92)=.FALSE. ,
(PID.TID 0000.0001) > PTRACERS_useKPP(92)=.FALSE.  ,
(PID.TID 0000.0001) > PTRACERS_initialFile(92)='input/loc1_biomass_run83_janprof.bin',
(PID.TID 0000.0001) ># tracer 93 - PHY72
(PID.TID 0000.0001) > PTRACERS_names(93)='Phy72',
(PID.TID 0000.0001) > PTRACERS_units(93)='mmol P/m^3'
(PID.TID 0000.0001) > PTRACERS_advScheme(93)=33,
(PID.TID 0000.0001) > PTRACERS_diffKh(93)=0.E3,
(PID.TID 0000.0001) > PTRACERS_diffKr(93)=1.E-5,
(PID.TID 0000.0001) > PTRACERS_useGMRedi(93)=.FALSE. ,
(PID.TID 0000.0001) > PTRACERS_useKPP(93)=.FALSE.  ,
(PID.TID 0000.0001) > PTRACERS_initialFile(93)='input/loc1_biomass_run83_janprof.bin',
(PID.TID 0000.0001) ># tracer 94 - PHY73
(PID.TID 0000.0001) > PTRACERS_names(94)='Phy73',
(PID.TID 0000.0001) > PTRACERS_units(94)='mmol P/m^3'
(PID.TID 0000.0001) > PTRACERS_advScheme(94)=33,
(PID.TID 0000.0001) > PTRACERS_diffKh(94)=0.E3,
(PID.TID 0000.0001) > PTRACERS_diffKr(94)=1.E-5,
(PID.TID 0000.0001) > PTRACERS_useGMRedi(94)=.FALSE. ,
(PID.TID 0000.0001) > PTRACERS_useKPP(94)=.FALSE.  ,
(PID.TID 0000.0001) > PTRACERS_initialFile(94)='input/loc1_biomass_run83_janprof.bin',
(PID.TID 0000.0001) ># tracer 95 - PHY74
(PID.TID 0000.0001) > PTRACERS_names(95)='Phy74',
(PID.TID 0000.0001) > PTRACERS_units(95)='mmol P/m^3'
(PID.TID 0000.0001) > PTRACERS_advScheme(95)=33,
(PID.TID 0000.0001) > PTRACERS_diffKh(95)=0.E3,
(PID.TID 0000.0001) > PTRACERS_diffKr(95)=1.E-5,
(PID.TID 0000.0001) > PTRACERS_useGMRedi(95)=.FALSE. ,
(PID.TID 0000.0001) > PTRACERS_useKPP(95)=.FALSE.  ,
(PID.TID 0000.0001) > PTRACERS_initialFile(95)='input/loc1_biomass_run83_janprof.bin',
(PID.TID 0000.0001) ># tracer 96 - PHY75
(PID.TID 0000.0001) > PTRACERS_names(96)='Phy75',
(PID.TID 0000.0001) > PTRACERS_units(96)='mmol P/m^3'
(PID.TID 0000.0001) > PTRACERS_advScheme(96)=33,
(PID.TID 0000.0001) > PTRACERS_diffKh(96)=0.E3,
(PID.TID 0000.0001) > PTRACERS_diffKr(96)=1.E-5,
(PID.TID 0000.0001) > PTRACERS_useGMRedi(96)=.FALSE. ,
(PID.TID 0000.0001) > PTRACERS_useKPP(96)=.FALSE.  ,
(PID.TID 0000.0001) > PTRACERS_initialFile(96)='input/loc1_biomass_run83_janprof.bin',
(PID.TID 0000.0001) ># tracer 97 - PHY76
(PID.TID 0000.0001) > PTRACERS_names(97)='Phy76',
(PID.TID 0000.0001) > PTRACERS_units(97)='mmol P/m^3'
(PID.TID 0000.0001) > PTRACERS_advScheme(97)=33,
(PID.TID 0000.0001) > PTRACERS_diffKh(97)=0.E3,
(PID.TID 0000.0001) > PTRACERS_diffKr(97)=1.E-5,
(PID.TID 0000.0001) > PTRACERS_useGMRedi(97)=.FALSE. ,
(PID.TID 0000.0001) > PTRACERS_useKPP(97)=.FALSE.  ,
(PID.TID 0000.0001) > PTRACERS_initialFile(97)='input/loc1_biomass_run83_janprof.bin',
(PID.TID 0000.0001) ># tracer 98 - PHY77
(PID.TID 0000.0001) > PTRACERS_names(98)='Phy77',
(PID.TID 0000.0001) > PTRACERS_units(98)='mmol P/m^3'
(PID.TID 0000.0001) > PTRACERS_advScheme(98)=33,
(PID.TID 0000.0001) > PTRACERS_diffKh(98)=0.E3,
(PID.TID 0000.0001) > PTRACERS_diffKr(98)=1.E-5,
(PID.TID 0000.0001) > PTRACERS_useGMRedi(98)=.FALSE. ,
(PID.TID 0000.0001) > PTRACERS_useKPP(98)=.FALSE.  ,
(PID.TID 0000.0001) > PTRACERS_initialFile(98)='input/loc1_biomass_run83_janprof.bin',
(PID.TID 0000.0001) ># tracer 99 - PHY78
(PID.TID 0000.0001) > PTRACERS_names(99)='Phy78',
(PID.TID 0000.0001) > PTRACERS_units(99)='mmol P/m^3'
(PID.TID 0000.0001) > PTRACERS_advScheme(99)=33,
(PID.TID 0000.0001) > PTRACERS_diffKh(99)=0.E3,
(PID.TID 0000.0001) > PTRACERS_diffKr(99)=1.E-5,
(PID.TID 0000.0001) > PTRACERS_useGMRedi(99)=.FALSE. ,
(PID.TID 0000.0001) > PTRACERS_useKPP(99)=.FALSE.  ,
(PID.TID 0000.0001) > PTRACERS_initialFile(99)='input/loc1_biomass_run83_janprof.bin',
(PID.TID 0000.0001) >&
(PID.TID 0000.0001) 
(PID.TID 0000.0001)  PTRACERS_READPARMS: finished reading data.ptracers
(PID.TID 0000.0001) // ===================================
(PID.TID 0000.0001) // PTRACERS parameters
(PID.TID 0000.0001) // ===================================
(PID.TID 0000.0001) PTRACERS_numInUse = /* number of tracers */
(PID.TID 0000.0001)                      99
(PID.TID 0000.0001)     ;
(PID.TID 0000.0001) PTRACERS_Iter0 = /* timestep number when tracers are initialized */
(PID.TID 0000.0001)                       0
(PID.TID 0000.0001)     ;
(PID.TID 0000.0001) PTRACERS_dumpFreq = /* Frequency^-1 for snapshot output (s) */
(PID.TID 0000.0001)                 3.110400000000000E+07
(PID.TID 0000.0001)     ;
(PID.TID 0000.0001) PTRACERS_taveFreq = /* Frequency^-1 for time-Aver. output (s) */
(PID.TID 0000.0001)                 2.592000000000000E+06
(PID.TID 0000.0001)     ;
(PID.TID 0000.0001) PTRACERS_useRecords = /* all tracers in 1 file */
(PID.TID 0000.0001)                   F
(PID.TID 0000.0001)     ;
(PID.TID 0000.0001) PTRACERS_timeave_mnc = /* use MNC for Tave output */
(PID.TID 0000.0001)                   T
(PID.TID 0000.0001)     ;
(PID.TID 0000.0001) PTRACERS_snapshot_mnc = /* use MNC for snapshot output */
(PID.TID 0000.0001)                   T
(PID.TID 0000.0001)     ;
(PID.TID 0000.0001) PTRACERS_pickup_write_mnc = /* use MNC for writing pickups */
(PID.TID 0000.0001)                   F
(PID.TID 0000.0001)     ;
(PID.TID 0000.0001) PTRACERS_pickup_read_mnc = /* use MNC for reading pickups */
(PID.TID 0000.0001)                   F
(PID.TID 0000.0001)     ;
(PID.TID 0000.0001)  -----------------------------------
(PID.TID 0000.0001)  tracer number :    1
(PID.TID 0000.0001) PTRACERS_ioLabel = /* tracer IO Label */
(PID.TID 0000.0001)               '01'
(PID.TID 0000.0001)     ;
(PID.TID 0000.0001) PTRACERS_advScheme = /* Advection Scheme */
(PID.TID 0000.0001)                      33
(PID.TID 0000.0001)     ;
(PID.TID 0000.0001) PTRACERS_ImplVertAdv = /* implicit vert. advection flag */
(PID.TID 0000.0001)                   F
(PID.TID 0000.0001)     ;
(PID.TID 0000.0001) PTRACERS_diffKh = /* Laplacian Diffusivity */
(PID.TID 0000.0001)                 0.000000000000000E+00
(PID.TID 0000.0001)     ;
(PID.TID 0000.0001) PTRACERS_diffK4 = /* Biharmonic Diffusivity */
(PID.TID 0000.0001)                 0.000000000000000E+00
(PID.TID 0000.0001)     ;
(PID.TID 0000.0001) PTRACERS_diffKrNr = /* Vertical Diffusivity */
(PID.TID 0000.0001)    35 @  1.000000000000000E-05              /* K =  1: 35 */
(PID.TID 0000.0001)     ;
(PID.TID 0000.0001) PTRACERS_useGMRedi = /* apply GM-Redi */
(PID.TID 0000.0001)                   F
(PID.TID 0000.0001)     ;
(PID.TID 0000.0001) PTRACERS_useKPP = /* apply KPP scheme */
(PID.TID 0000.0001)                   F
(PID.TID 0000.0001)     ;
(PID.TID 0000.0001) PTRACERS_ref = /* Reference vertical profile */
(PID.TID 0000.0001)    35 @  0.000000000000000E+00              /* K =  1: 35 */
(PID.TID 0000.0001)     ;
(PID.TID 0000.0001) PTRACERS_EvPrRn =/* tracer conc. in Evap. & Rain */
(PID.TID 0000.0001)                 1.234567000000000E+05
(PID.TID 0000.0001)     ;
(PID.TID 0000.0001)  -----------------------------------
(PID.TID 0000.0001)  tracer number :    2
(PID.TID 0000.0001) PTRACERS_ioLabel = /* tracer IO Label */
(PID.TID 0000.0001)               '02'
(PID.TID 0000.0001)     ;
(PID.TID 0000.0001) PTRACERS_advScheme = /* Advection Scheme */
(PID.TID 0000.0001)                      33
(PID.TID 0000.0001)     ;
(PID.TID 0000.0001) PTRACERS_ImplVertAdv = /* implicit vert. advection flag */
(PID.TID 0000.0001)                   F
(PID.TID 0000.0001)     ;
(PID.TID 0000.0001) PTRACERS_diffKh = /* Laplacian Diffusivity */
(PID.TID 0000.0001)                 0.000000000000000E+00
(PID.TID 0000.0001)     ;
(PID.TID 0000.0001) PTRACERS_diffK4 = /* Biharmonic Diffusivity */
(PID.TID 0000.0001)                 0.000000000000000E+00
(PID.TID 0000.0001)     ;
(PID.TID 0000.0001) PTRACERS_diffKrNr = /* Vertical Diffusivity */
(PID.TID 0000.0001)    35 @  1.000000000000000E-05              /* K =  1: 35 */
(PID.TID 0000.0001)     ;
(PID.TID 0000.0001) PTRACERS_useGMRedi = /* apply GM-Redi */
(PID.TID 0000.0001)                   F
(PID.TID 0000.0001)     ;
(PID.TID 0000.0001) PTRACERS_useKPP = /* apply KPP scheme */
(PID.TID 0000.0001)                   F
(PID.TID 0000.0001)     ;
(PID.TID 0000.0001) PTRACERS_ref = /* Reference vertical profile */
(PID.TID 0000.0001)    35 @  0.000000000000000E+00              /* K =  1: 35 */
(PID.TID 0000.0001)     ;
(PID.TID 0000.0001) PTRACERS_EvPrRn =/* tracer conc. in Evap. & Rain */
(PID.TID 0000.0001)                 1.234567000000000E+05
(PID.TID 0000.0001)     ;
(PID.TID 0000.0001)  -----------------------------------
(PID.TID 0000.0001)  tracer number :    3
(PID.TID 0000.0001) PTRACERS_ioLabel = /* tracer IO Label */
(PID.TID 0000.0001)               '03'
(PID.TID 0000.0001)     ;
(PID.TID 0000.0001) PTRACERS_advScheme = /* Advection Scheme */
(PID.TID 0000.0001)                      33
(PID.TID 0000.0001)     ;
(PID.TID 0000.0001) PTRACERS_ImplVertAdv = /* implicit vert. advection flag */
(PID.TID 0000.0001)                   F
(PID.TID 0000.0001)     ;
(PID.TID 0000.0001) PTRACERS_diffKh = /* Laplacian Diffusivity */
(PID.TID 0000.0001)                 0.000000000000000E+00
(PID.TID 0000.0001)     ;
(PID.TID 0000.0001) PTRACERS_diffK4 = /* Biharmonic Diffusivity */
(PID.TID 0000.0001)                 0.000000000000000E+00
(PID.TID 0000.0001)     ;
(PID.TID 0000.0001) PTRACERS_diffKrNr = /* Vertical Diffusivity */
(PID.TID 0000.0001)    35 @  1.000000000000000E-05              /* K =  1: 35 */
(PID.TID 0000.0001)     ;
(PID.TID 0000.0001) PTRACERS_useGMRedi = /* apply GM-Redi */
(PID.TID 0000.0001)                   F
(PID.TID 0000.0001)     ;
(PID.TID 0000.0001) PTRACERS_useKPP = /* apply KPP scheme */
(PID.TID 0000.0001)                   F
(PID.TID 0000.0001)     ;
(PID.TID 0000.0001) PTRACERS_ref = /* Reference vertical profile */
(PID.TID 0000.0001)    35 @  0.000000000000000E+00              /* K =  1: 35 */
(PID.TID 0000.0001)     ;
(PID.TID 0000.0001) PTRACERS_EvPrRn =/* tracer conc. in Evap. & Rain */
(PID.TID 0000.0001)                 1.234567000000000E+05
(PID.TID 0000.0001)     ;
(PID.TID 0000.0001)  -----------------------------------
(PID.TID 0000.0001)  tracer number :    4
(PID.TID 0000.0001) PTRACERS_ioLabel = /* tracer IO Label */
(PID.TID 0000.0001)               '04'
(PID.TID 0000.0001)     ;
(PID.TID 0000.0001) PTRACERS_advScheme = /* Advection Scheme */
(PID.TID 0000.0001)                      33
(PID.TID 0000.0001)     ;
(PID.TID 0000.0001) PTRACERS_ImplVertAdv = /* implicit vert. advection flag */
(PID.TID 0000.0001)                   F
(PID.TID 0000.0001)     ;
(PID.TID 0000.0001) PTRACERS_diffKh = /* Laplacian Diffusivity */
(PID.TID 0000.0001)                 0.000000000000000E+00
(PID.TID 0000.0001)     ;
(PID.TID 0000.0001) PTRACERS_diffK4 = /* Biharmonic Diffusivity */
(PID.TID 0000.0001)                 0.000000000000000E+00
(PID.TID 0000.0001)     ;
(PID.TID 0000.0001) PTRACERS_diffKrNr = /* Vertical Diffusivity */
(PID.TID 0000.0001)    35 @  1.000000000000000E-05              /* K =  1: 35 */
(PID.TID 0000.0001)     ;
(PID.TID 0000.0001) PTRACERS_useGMRedi = /* apply GM-Redi */
(PID.TID 0000.0001)                   F
(PID.TID 0000.0001)     ;
(PID.TID 0000.0001) PTRACERS_useKPP = /* apply KPP scheme */
(PID.TID 0000.0001)                   F
(PID.TID 0000.0001)     ;
(PID.TID 0000.0001) PTRACERS_ref = /* Reference vertical profile */
(PID.TID 0000.0001)    35 @  0.000000000000000E+00              /* K =  1: 35 */
(PID.TID 0000.0001)     ;
(PID.TID 0000.0001) PTRACERS_EvPrRn =/* tracer conc. in Evap. & Rain */
(PID.TID 0000.0001)                 1.234567000000000E+05
(PID.TID 0000.0001)     ;
(PID.TID 0000.0001)  -----------------------------------
(PID.TID 0000.0001)  tracer number :    5
(PID.TID 0000.0001) PTRACERS_ioLabel = /* tracer IO Label */
(PID.TID 0000.0001)               '05'
(PID.TID 0000.0001)     ;
(PID.TID 0000.0001) PTRACERS_advScheme = /* Advection Scheme */
(PID.TID 0000.0001)                      33
(PID.TID 0000.0001)     ;
(PID.TID 0000.0001) PTRACERS_ImplVertAdv = /* implicit vert. advection flag */
(PID.TID 0000.0001)                   F
(PID.TID 0000.0001)     ;
(PID.TID 0000.0001) PTRACERS_diffKh = /* Laplacian Diffusivity */
(PID.TID 0000.0001)                 0.000000000000000E+00
(PID.TID 0000.0001)     ;
(PID.TID 0000.0001) PTRACERS_diffK4 = /* Biharmonic Diffusivity */
(PID.TID 0000.0001)                 0.000000000000000E+00
(PID.TID 0000.0001)     ;
(PID.TID 0000.0001) PTRACERS_diffKrNr = /* Vertical Diffusivity */
(PID.TID 0000.0001)    35 @  1.000000000000000E-05              /* K =  1: 35 */
(PID.TID 0000.0001)     ;
(PID.TID 0000.0001) PTRACERS_useGMRedi = /* apply GM-Redi */
(PID.TID 0000.0001)                   F
(PID.TID 0000.0001)     ;
(PID.TID 0000.0001) PTRACERS_useKPP = /* apply KPP scheme */
(PID.TID 0000.0001)                   F
(PID.TID 0000.0001)     ;
(PID.TID 0000.0001) PTRACERS_ref = /* Reference vertical profile */
(PID.TID 0000.0001)    35 @  0.000000000000000E+00              /* K =  1: 35 */
(PID.TID 0000.0001)     ;
(PID.TID 0000.0001) PTRACERS_EvPrRn =/* tracer conc. in Evap. & Rain */
(PID.TID 0000.0001)                 1.234567000000000E+05
(PID.TID 0000.0001)     ;
(PID.TID 0000.0001)  -----------------------------------
(PID.TID 0000.0001)  tracer number :    6
(PID.TID 0000.0001) PTRACERS_ioLabel = /* tracer IO Label */
(PID.TID 0000.0001)               '06'
(PID.TID 0000.0001)     ;
(PID.TID 0000.0001) PTRACERS_advScheme = /* Advection Scheme */
(PID.TID 0000.0001)                      33
(PID.TID 0000.0001)     ;
(PID.TID 0000.0001) PTRACERS_ImplVertAdv = /* implicit vert. advection flag */
(PID.TID 0000.0001)                   F
(PID.TID 0000.0001)     ;
(PID.TID 0000.0001) PTRACERS_diffKh = /* Laplacian Diffusivity */
(PID.TID 0000.0001)                 0.000000000000000E+00
(PID.TID 0000.0001)     ;
(PID.TID 0000.0001) PTRACERS_diffK4 = /* Biharmonic Diffusivity */
(PID.TID 0000.0001)                 0.000000000000000E+00
(PID.TID 0000.0001)     ;
(PID.TID 0000.0001) PTRACERS_diffKrNr = /* Vertical Diffusivity */
(PID.TID 0000.0001)    35 @  1.000000000000000E-05              /* K =  1: 35 */
(PID.TID 0000.0001)     ;
(PID.TID 0000.0001) PTRACERS_useGMRedi = /* apply GM-Redi */
(PID.TID 0000.0001)                   F
(PID.TID 0000.0001)     ;
(PID.TID 0000.0001) PTRACERS_useKPP = /* apply KPP scheme */
(PID.TID 0000.0001)                   F
(PID.TID 0000.0001)     ;
(PID.TID 0000.0001) PTRACERS_ref = /* Reference vertical profile */
(PID.TID 0000.0001)    35 @  0.000000000000000E+00              /* K =  1: 35 */
(PID.TID 0000.0001)     ;
(PID.TID 0000.0001) PTRACERS_EvPrRn =/* tracer conc. in Evap. & Rain */
(PID.TID 0000.0001)                 1.234567000000000E+05
(PID.TID 0000.0001)     ;
(PID.TID 0000.0001)  -----------------------------------
(PID.TID 0000.0001)  tracer number :    7
(PID.TID 0000.0001) PTRACERS_ioLabel = /* tracer IO Label */
(PID.TID 0000.0001)               '07'
(PID.TID 0000.0001)     ;
(PID.TID 0000.0001) PTRACERS_advScheme = /* Advection Scheme */
(PID.TID 0000.0001)                      33
(PID.TID 0000.0001)     ;
(PID.TID 0000.0001) PTRACERS_ImplVertAdv = /* implicit vert. advection flag */
(PID.TID 0000.0001)                   F
(PID.TID 0000.0001)     ;
(PID.TID 0000.0001) PTRACERS_diffKh = /* Laplacian Diffusivity */
(PID.TID 0000.0001)                 0.000000000000000E+00
(PID.TID 0000.0001)     ;
(PID.TID 0000.0001) PTRACERS_diffK4 = /* Biharmonic Diffusivity */
(PID.TID 0000.0001)                 0.000000000000000E+00
(PID.TID 0000.0001)     ;
(PID.TID 0000.0001) PTRACERS_diffKrNr = /* Vertical Diffusivity */
(PID.TID 0000.0001)    35 @  1.000000000000000E-05              /* K =  1: 35 */
(PID.TID 0000.0001)     ;
(PID.TID 0000.0001) PTRACERS_useGMRedi = /* apply GM-Redi */
(PID.TID 0000.0001)                   F
(PID.TID 0000.0001)     ;
(PID.TID 0000.0001) PTRACERS_useKPP = /* apply KPP scheme */
(PID.TID 0000.0001)                   F
(PID.TID 0000.0001)     ;
(PID.TID 0000.0001) PTRACERS_ref = /* Reference vertical profile */
(PID.TID 0000.0001)    35 @  0.000000000000000E+00              /* K =  1: 35 */
(PID.TID 0000.0001)     ;
(PID.TID 0000.0001) PTRACERS_EvPrRn =/* tracer conc. in Evap. & Rain */
(PID.TID 0000.0001)                 1.234567000000000E+05
(PID.TID 0000.0001)     ;
(PID.TID 0000.0001)  -----------------------------------
(PID.TID 0000.0001)  tracer number :    8
(PID.TID 0000.0001) PTRACERS_ioLabel = /* tracer IO Label */
(PID.TID 0000.0001)               '08'
(PID.TID 0000.0001)     ;
(PID.TID 0000.0001) PTRACERS_advScheme = /* Advection Scheme */
(PID.TID 0000.0001)                      33
(PID.TID 0000.0001)     ;
(PID.TID 0000.0001) PTRACERS_ImplVertAdv = /* implicit vert. advection flag */
(PID.TID 0000.0001)                   F
(PID.TID 0000.0001)     ;
(PID.TID 0000.0001) PTRACERS_diffKh = /* Laplacian Diffusivity */
(PID.TID 0000.0001)                 0.000000000000000E+00
(PID.TID 0000.0001)     ;
(PID.TID 0000.0001) PTRACERS_diffK4 = /* Biharmonic Diffusivity */
(PID.TID 0000.0001)                 0.000000000000000E+00
(PID.TID 0000.0001)     ;
(PID.TID 0000.0001) PTRACERS_diffKrNr = /* Vertical Diffusivity */
(PID.TID 0000.0001)    35 @  1.000000000000000E-05              /* K =  1: 35 */
(PID.TID 0000.0001)     ;
(PID.TID 0000.0001) PTRACERS_useGMRedi = /* apply GM-Redi */
(PID.TID 0000.0001)                   F
(PID.TID 0000.0001)     ;
(PID.TID 0000.0001) PTRACERS_useKPP = /* apply KPP scheme */
(PID.TID 0000.0001)                   F
(PID.TID 0000.0001)     ;
(PID.TID 0000.0001) PTRACERS_ref = /* Reference vertical profile */
(PID.TID 0000.0001)    35 @  0.000000000000000E+00              /* K =  1: 35 */
(PID.TID 0000.0001)     ;
(PID.TID 0000.0001) PTRACERS_EvPrRn =/* tracer conc. in Evap. & Rain */
(PID.TID 0000.0001)                 1.234567000000000E+05
(PID.TID 0000.0001)     ;
(PID.TID 0000.0001)  -----------------------------------
(PID.TID 0000.0001)  tracer number :    9
(PID.TID 0000.0001) PTRACERS_ioLabel = /* tracer IO Label */
(PID.TID 0000.0001)               '09'
(PID.TID 0000.0001)     ;
(PID.TID 0000.0001) PTRACERS_advScheme = /* Advection Scheme */
(PID.TID 0000.0001)                      33
(PID.TID 0000.0001)     ;
(PID.TID 0000.0001) PTRACERS_ImplVertAdv = /* implicit vert. advection flag */
(PID.TID 0000.0001)                   F
(PID.TID 0000.0001)     ;
(PID.TID 0000.0001) PTRACERS_diffKh = /* Laplacian Diffusivity */
(PID.TID 0000.0001)                 0.000000000000000E+00
(PID.TID 0000.0001)     ;
(PID.TID 0000.0001) PTRACERS_diffK4 = /* Biharmonic Diffusivity */
(PID.TID 0000.0001)                 0.000000000000000E+00
(PID.TID 0000.0001)     ;
(PID.TID 0000.0001) PTRACERS_diffKrNr = /* Vertical Diffusivity */
(PID.TID 0000.0001)    35 @  1.000000000000000E-05              /* K =  1: 35 */
(PID.TID 0000.0001)     ;
(PID.TID 0000.0001) PTRACERS_useGMRedi = /* apply GM-Redi */
(PID.TID 0000.0001)                   F
(PID.TID 0000.0001)     ;
(PID.TID 0000.0001) PTRACERS_useKPP = /* apply KPP scheme */
(PID.TID 0000.0001)                   F
(PID.TID 0000.0001)     ;
(PID.TID 0000.0001) PTRACERS_ref = /* Reference vertical profile */
(PID.TID 0000.0001)    35 @  0.000000000000000E+00              /* K =  1: 35 */
(PID.TID 0000.0001)     ;
(PID.TID 0000.0001) PTRACERS_EvPrRn =/* tracer conc. in Evap. & Rain */
(PID.TID 0000.0001)                 1.234567000000000E+05
(PID.TID 0000.0001)     ;
(PID.TID 0000.0001)  -----------------------------------
(PID.TID 0000.0001)  tracer number :   10
(PID.TID 0000.0001) PTRACERS_ioLabel = /* tracer IO Label */
(PID.TID 0000.0001)               '10'
(PID.TID 0000.0001)     ;
(PID.TID 0000.0001) PTRACERS_advScheme = /* Advection Scheme */
(PID.TID 0000.0001)                      33
(PID.TID 0000.0001)     ;
(PID.TID 0000.0001) PTRACERS_ImplVertAdv = /* implicit vert. advection flag */
(PID.TID 0000.0001)                   F
(PID.TID 0000.0001)     ;
(PID.TID 0000.0001) PTRACERS_diffKh = /* Laplacian Diffusivity */
(PID.TID 0000.0001)                 0.000000000000000E+00
(PID.TID 0000.0001)     ;
(PID.TID 0000.0001) PTRACERS_diffK4 = /* Biharmonic Diffusivity */
(PID.TID 0000.0001)                 0.000000000000000E+00
(PID.TID 0000.0001)     ;
(PID.TID 0000.0001) PTRACERS_diffKrNr = /* Vertical Diffusivity */
(PID.TID 0000.0001)    35 @  1.000000000000000E-05              /* K =  1: 35 */
(PID.TID 0000.0001)     ;
(PID.TID 0000.0001) PTRACERS_useGMRedi = /* apply GM-Redi */
(PID.TID 0000.0001)                   F
(PID.TID 0000.0001)     ;
(PID.TID 0000.0001) PTRACERS_useKPP = /* apply KPP scheme */
(PID.TID 0000.0001)                   F
(PID.TID 0000.0001)     ;
(PID.TID 0000.0001) PTRACERS_ref = /* Reference vertical profile */
(PID.TID 0000.0001)    35 @  0.000000000000000E+00              /* K =  1: 35 */
(PID.TID 0000.0001)     ;
(PID.TID 0000.0001) PTRACERS_EvPrRn =/* tracer conc. in Evap. & Rain */
(PID.TID 0000.0001)                 1.234567000000000E+05
(PID.TID 0000.0001)     ;
(PID.TID 0000.0001)  -----------------------------------
(PID.TID 0000.0001)  tracer number :   11
(PID.TID 0000.0001) PTRACERS_ioLabel = /* tracer IO Label */
(PID.TID 0000.0001)               '11'
(PID.TID 0000.0001)     ;
(PID.TID 0000.0001) PTRACERS_advScheme = /* Advection Scheme */
(PID.TID 0000.0001)                      33
(PID.TID 0000.0001)     ;
(PID.TID 0000.0001) PTRACERS_ImplVertAdv = /* implicit vert. advection flag */
(PID.TID 0000.0001)                   F
(PID.TID 0000.0001)     ;
(PID.TID 0000.0001) PTRACERS_diffKh = /* Laplacian Diffusivity */
(PID.TID 0000.0001)                 0.000000000000000E+00
(PID.TID 0000.0001)     ;
(PID.TID 0000.0001) PTRACERS_diffK4 = /* Biharmonic Diffusivity */
(PID.TID 0000.0001)                 0.000000000000000E+00
(PID.TID 0000.0001)     ;
(PID.TID 0000.0001) PTRACERS_diffKrNr = /* Vertical Diffusivity */
(PID.TID 0000.0001)    35 @  1.000000000000000E-05              /* K =  1: 35 */
(PID.TID 0000.0001)     ;
(PID.TID 0000.0001) PTRACERS_useGMRedi = /* apply GM-Redi */
(PID.TID 0000.0001)                   F
(PID.TID 0000.0001)     ;
(PID.TID 0000.0001) PTRACERS_useKPP = /* apply KPP scheme */
(PID.TID 0000.0001)                   F
(PID.TID 0000.0001)     ;
(PID.TID 0000.0001) PTRACERS_ref = /* Reference vertical profile */
(PID.TID 0000.0001)    35 @  0.000000000000000E+00              /* K =  1: 35 */
(PID.TID 0000.0001)     ;
(PID.TID 0000.0001) PTRACERS_EvPrRn =/* tracer conc. in Evap. & Rain */
(PID.TID 0000.0001)                 1.234567000000000E+05
(PID.TID 0000.0001)     ;
(PID.TID 0000.0001)  -----------------------------------
(PID.TID 0000.0001)  tracer number :   12
(PID.TID 0000.0001) PTRACERS_ioLabel = /* tracer IO Label */
(PID.TID 0000.0001)               '12'
(PID.TID 0000.0001)     ;
(PID.TID 0000.0001) PTRACERS_advScheme = /* Advection Scheme */
(PID.TID 0000.0001)                      33
(PID.TID 0000.0001)     ;
(PID.TID 0000.0001) PTRACERS_ImplVertAdv = /* implicit vert. advection flag */
(PID.TID 0000.0001)                   F
(PID.TID 0000.0001)     ;
(PID.TID 0000.0001) PTRACERS_diffKh = /* Laplacian Diffusivity */
(PID.TID 0000.0001)                 0.000000000000000E+00
(PID.TID 0000.0001)     ;
(PID.TID 0000.0001) PTRACERS_diffK4 = /* Biharmonic Diffusivity */
(PID.TID 0000.0001)                 0.000000000000000E+00
(PID.TID 0000.0001)     ;
(PID.TID 0000.0001) PTRACERS_diffKrNr = /* Vertical Diffusivity */
(PID.TID 0000.0001)    35 @  1.000000000000000E-05              /* K =  1: 35 */
(PID.TID 0000.0001)     ;
(PID.TID 0000.0001) PTRACERS_useGMRedi = /* apply GM-Redi */
(PID.TID 0000.0001)                   F
(PID.TID 0000.0001)     ;
(PID.TID 0000.0001) PTRACERS_useKPP = /* apply KPP scheme */
(PID.TID 0000.0001)                   F
(PID.TID 0000.0001)     ;
(PID.TID 0000.0001) PTRACERS_ref = /* Reference vertical profile */
(PID.TID 0000.0001)    35 @  0.000000000000000E+00              /* K =  1: 35 */
(PID.TID 0000.0001)     ;
(PID.TID 0000.0001) PTRACERS_EvPrRn =/* tracer conc. in Evap. & Rain */
(PID.TID 0000.0001)                 1.234567000000000E+05
(PID.TID 0000.0001)     ;
(PID.TID 0000.0001)  -----------------------------------
(PID.TID 0000.0001)  tracer number :   13
(PID.TID 0000.0001) PTRACERS_ioLabel = /* tracer IO Label */
(PID.TID 0000.0001)               '13'
(PID.TID 0000.0001)     ;
(PID.TID 0000.0001) PTRACERS_advScheme = /* Advection Scheme */
(PID.TID 0000.0001)                      33
(PID.TID 0000.0001)     ;
(PID.TID 0000.0001) PTRACERS_ImplVertAdv = /* implicit vert. advection flag */
(PID.TID 0000.0001)                   F
(PID.TID 0000.0001)     ;
(PID.TID 0000.0001) PTRACERS_diffKh = /* Laplacian Diffusivity */
(PID.TID 0000.0001)                 0.000000000000000E+00
(PID.TID 0000.0001)     ;
(PID.TID 0000.0001) PTRACERS_diffK4 = /* Biharmonic Diffusivity */
(PID.TID 0000.0001)                 0.000000000000000E+00
(PID.TID 0000.0001)     ;
(PID.TID 0000.0001) PTRACERS_diffKrNr = /* Vertical Diffusivity */
(PID.TID 0000.0001)    35 @  1.000000000000000E-05              /* K =  1: 35 */
(PID.TID 0000.0001)     ;
(PID.TID 0000.0001) PTRACERS_useGMRedi = /* apply GM-Redi */
(PID.TID 0000.0001)                   F
(PID.TID 0000.0001)     ;
(PID.TID 0000.0001) PTRACERS_useKPP = /* apply KPP scheme */
(PID.TID 0000.0001)                   F
(PID.TID 0000.0001)     ;
(PID.TID 0000.0001) PTRACERS_ref = /* Reference vertical profile */
(PID.TID 0000.0001)    35 @  0.000000000000000E+00              /* K =  1: 35 */
(PID.TID 0000.0001)     ;
(PID.TID 0000.0001) PTRACERS_EvPrRn =/* tracer conc. in Evap. & Rain */
(PID.TID 0000.0001)                 1.234567000000000E+05
(PID.TID 0000.0001)     ;
(PID.TID 0000.0001)  -----------------------------------
(PID.TID 0000.0001)  tracer number :   14
(PID.TID 0000.0001) PTRACERS_ioLabel = /* tracer IO Label */
(PID.TID 0000.0001)               '14'
(PID.TID 0000.0001)     ;
(PID.TID 0000.0001) PTRACERS_advScheme = /* Advection Scheme */
(PID.TID 0000.0001)                      33
(PID.TID 0000.0001)     ;
(PID.TID 0000.0001) PTRACERS_ImplVertAdv = /* implicit vert. advection flag */
(PID.TID 0000.0001)                   F
(PID.TID 0000.0001)     ;
(PID.TID 0000.0001) PTRACERS_diffKh = /* Laplacian Diffusivity */
(PID.TID 0000.0001)                 0.000000000000000E+00
(PID.TID 0000.0001)     ;
(PID.TID 0000.0001) PTRACERS_diffK4 = /* Biharmonic Diffusivity */
(PID.TID 0000.0001)                 0.000000000000000E+00
(PID.TID 0000.0001)     ;
(PID.TID 0000.0001) PTRACERS_diffKrNr = /* Vertical Diffusivity */
(PID.TID 0000.0001)    35 @  1.000000000000000E-05              /* K =  1: 35 */
(PID.TID 0000.0001)     ;
(PID.TID 0000.0001) PTRACERS_useGMRedi = /* apply GM-Redi */
(PID.TID 0000.0001)                   F
(PID.TID 0000.0001)     ;
(PID.TID 0000.0001) PTRACERS_useKPP = /* apply KPP scheme */
(PID.TID 0000.0001)                   F
(PID.TID 0000.0001)     ;
(PID.TID 0000.0001) PTRACERS_ref = /* Reference vertical profile */
(PID.TID 0000.0001)    35 @  0.000000000000000E+00              /* K =  1: 35 */
(PID.TID 0000.0001)     ;
(PID.TID 0000.0001) PTRACERS_EvPrRn =/* tracer conc. in Evap. & Rain */
(PID.TID 0000.0001)                 1.234567000000000E+05
(PID.TID 0000.0001)     ;
(PID.TID 0000.0001)  -----------------------------------
(PID.TID 0000.0001)  tracer number :   15
(PID.TID 0000.0001) PTRACERS_ioLabel = /* tracer IO Label */
(PID.TID 0000.0001)               '15'
(PID.TID 0000.0001)     ;
(PID.TID 0000.0001) PTRACERS_advScheme = /* Advection Scheme */
(PID.TID 0000.0001)                      33
(PID.TID 0000.0001)     ;
(PID.TID 0000.0001) PTRACERS_ImplVertAdv = /* implicit vert. advection flag */
(PID.TID 0000.0001)                   F
(PID.TID 0000.0001)     ;
(PID.TID 0000.0001) PTRACERS_diffKh = /* Laplacian Diffusivity */
(PID.TID 0000.0001)                 0.000000000000000E+00
(PID.TID 0000.0001)     ;
(PID.TID 0000.0001) PTRACERS_diffK4 = /* Biharmonic Diffusivity */
(PID.TID 0000.0001)                 0.000000000000000E+00
(PID.TID 0000.0001)     ;
(PID.TID 0000.0001) PTRACERS_diffKrNr = /* Vertical Diffusivity */
(PID.TID 0000.0001)    35 @  1.000000000000000E-05              /* K =  1: 35 */
(PID.TID 0000.0001)     ;
(PID.TID 0000.0001) PTRACERS_useGMRedi = /* apply GM-Redi */
(PID.TID 0000.0001)                   F
(PID.TID 0000.0001)     ;
(PID.TID 0000.0001) PTRACERS_useKPP = /* apply KPP scheme */
(PID.TID 0000.0001)                   F
(PID.TID 0000.0001)     ;
(PID.TID 0000.0001) PTRACERS_ref = /* Reference vertical profile */
(PID.TID 0000.0001)    35 @  0.000000000000000E+00              /* K =  1: 35 */
(PID.TID 0000.0001)     ;
(PID.TID 0000.0001) PTRACERS_EvPrRn =/* tracer conc. in Evap. & Rain */
(PID.TID 0000.0001)                 1.234567000000000E+05
(PID.TID 0000.0001)     ;
(PID.TID 0000.0001)  -----------------------------------
(PID.TID 0000.0001)  tracer number :   16
(PID.TID 0000.0001) PTRACERS_ioLabel = /* tracer IO Label */
(PID.TID 0000.0001)               '16'
(PID.TID 0000.0001)     ;
(PID.TID 0000.0001) PTRACERS_advScheme = /* Advection Scheme */
(PID.TID 0000.0001)                      33
(PID.TID 0000.0001)     ;
(PID.TID 0000.0001) PTRACERS_ImplVertAdv = /* implicit vert. advection flag */
(PID.TID 0000.0001)                   F
(PID.TID 0000.0001)     ;
(PID.TID 0000.0001) PTRACERS_diffKh = /* Laplacian Diffusivity */
(PID.TID 0000.0001)                 0.000000000000000E+00
(PID.TID 0000.0001)     ;
(PID.TID 0000.0001) PTRACERS_diffK4 = /* Biharmonic Diffusivity */
(PID.TID 0000.0001)                 0.000000000000000E+00
(PID.TID 0000.0001)     ;
(PID.TID 0000.0001) PTRACERS_diffKrNr = /* Vertical Diffusivity */
(PID.TID 0000.0001)    35 @  1.000000000000000E-05              /* K =  1: 35 */
(PID.TID 0000.0001)     ;
(PID.TID 0000.0001) PTRACERS_useGMRedi = /* apply GM-Redi */
(PID.TID 0000.0001)                   F
(PID.TID 0000.0001)     ;
(PID.TID 0000.0001) PTRACERS_useKPP = /* apply KPP scheme */
(PID.TID 0000.0001)                   F
(PID.TID 0000.0001)     ;
(PID.TID 0000.0001) PTRACERS_ref = /* Reference vertical profile */
(PID.TID 0000.0001)    35 @  0.000000000000000E+00              /* K =  1: 35 */
(PID.TID 0000.0001)     ;
(PID.TID 0000.0001) PTRACERS_EvPrRn =/* tracer conc. in Evap. & Rain */
(PID.TID 0000.0001)                 1.234567000000000E+05
(PID.TID 0000.0001)     ;
(PID.TID 0000.0001)  -----------------------------------
(PID.TID 0000.0001)  tracer number :   17
(PID.TID 0000.0001) PTRACERS_ioLabel = /* tracer IO Label */
(PID.TID 0000.0001)               '17'
(PID.TID 0000.0001)     ;
(PID.TID 0000.0001) PTRACERS_advScheme = /* Advection Scheme */
(PID.TID 0000.0001)                      33
(PID.TID 0000.0001)     ;
(PID.TID 0000.0001) PTRACERS_ImplVertAdv = /* implicit vert. advection flag */
(PID.TID 0000.0001)                   F
(PID.TID 0000.0001)     ;
(PID.TID 0000.0001) PTRACERS_diffKh = /* Laplacian Diffusivity */
(PID.TID 0000.0001)                 0.000000000000000E+00
(PID.TID 0000.0001)     ;
(PID.TID 0000.0001) PTRACERS_diffK4 = /* Biharmonic Diffusivity */
(PID.TID 0000.0001)                 0.000000000000000E+00
(PID.TID 0000.0001)     ;
(PID.TID 0000.0001) PTRACERS_diffKrNr = /* Vertical Diffusivity */
(PID.TID 0000.0001)    35 @  1.000000000000000E-05              /* K =  1: 35 */
(PID.TID 0000.0001)     ;
(PID.TID 0000.0001) PTRACERS_useGMRedi = /* apply GM-Redi */
(PID.TID 0000.0001)                   F
(PID.TID 0000.0001)     ;
(PID.TID 0000.0001) PTRACERS_useKPP = /* apply KPP scheme */
(PID.TID 0000.0001)                   F
(PID.TID 0000.0001)     ;
(PID.TID 0000.0001) PTRACERS_ref = /* Reference vertical profile */
(PID.TID 0000.0001)    35 @  0.000000000000000E+00              /* K =  1: 35 */
(PID.TID 0000.0001)     ;
(PID.TID 0000.0001) PTRACERS_EvPrRn =/* tracer conc. in Evap. & Rain */
(PID.TID 0000.0001)                 1.234567000000000E+05
(PID.TID 0000.0001)     ;
(PID.TID 0000.0001)  -----------------------------------
(PID.TID 0000.0001)  tracer number :   18
(PID.TID 0000.0001) PTRACERS_ioLabel = /* tracer IO Label */
(PID.TID 0000.0001)               '18'
(PID.TID 0000.0001)     ;
(PID.TID 0000.0001) PTRACERS_advScheme = /* Advection Scheme */
(PID.TID 0000.0001)                      33
(PID.TID 0000.0001)     ;
(PID.TID 0000.0001) PTRACERS_ImplVertAdv = /* implicit vert. advection flag */
(PID.TID 0000.0001)                   F
(PID.TID 0000.0001)     ;
(PID.TID 0000.0001) PTRACERS_diffKh = /* Laplacian Diffusivity */
(PID.TID 0000.0001)                 0.000000000000000E+00
(PID.TID 0000.0001)     ;
(PID.TID 0000.0001) PTRACERS_diffK4 = /* Biharmonic Diffusivity */
(PID.TID 0000.0001)                 0.000000000000000E+00
(PID.TID 0000.0001)     ;
(PID.TID 0000.0001) PTRACERS_diffKrNr = /* Vertical Diffusivity */
(PID.TID 0000.0001)    35 @  1.000000000000000E-05              /* K =  1: 35 */
(PID.TID 0000.0001)     ;
(PID.TID 0000.0001) PTRACERS_useGMRedi = /* apply GM-Redi */
(PID.TID 0000.0001)                   F
(PID.TID 0000.0001)     ;
(PID.TID 0000.0001) PTRACERS_useKPP = /* apply KPP scheme */
(PID.TID 0000.0001)                   F
(PID.TID 0000.0001)     ;
(PID.TID 0000.0001) PTRACERS_ref = /* Reference vertical profile */
(PID.TID 0000.0001)    35 @  0.000000000000000E+00              /* K =  1: 35 */
(PID.TID 0000.0001)     ;
(PID.TID 0000.0001) PTRACERS_EvPrRn =/* tracer conc. in Evap. & Rain */
(PID.TID 0000.0001)                 1.234567000000000E+05
(PID.TID 0000.0001)     ;
(PID.TID 0000.0001)  -----------------------------------
(PID.TID 0000.0001)  tracer number :   19
(PID.TID 0000.0001) PTRACERS_ioLabel = /* tracer IO Label */
(PID.TID 0000.0001)               '19'
(PID.TID 0000.0001)     ;
(PID.TID 0000.0001) PTRACERS_advScheme = /* Advection Scheme */
(PID.TID 0000.0001)                      33
(PID.TID 0000.0001)     ;
(PID.TID 0000.0001) PTRACERS_ImplVertAdv = /* implicit vert. advection flag */
(PID.TID 0000.0001)                   F
(PID.TID 0000.0001)     ;
(PID.TID 0000.0001) PTRACERS_diffKh = /* Laplacian Diffusivity */
(PID.TID 0000.0001)                 0.000000000000000E+00
(PID.TID 0000.0001)     ;
(PID.TID 0000.0001) PTRACERS_diffK4 = /* Biharmonic Diffusivity */
(PID.TID 0000.0001)                 0.000000000000000E+00
(PID.TID 0000.0001)     ;
(PID.TID 0000.0001) PTRACERS_diffKrNr = /* Vertical Diffusivity */
(PID.TID 0000.0001)    35 @  1.000000000000000E-05              /* K =  1: 35 */
(PID.TID 0000.0001)     ;
(PID.TID 0000.0001) PTRACERS_useGMRedi = /* apply GM-Redi */
(PID.TID 0000.0001)                   F
(PID.TID 0000.0001)     ;
(PID.TID 0000.0001) PTRACERS_useKPP = /* apply KPP scheme */
(PID.TID 0000.0001)                   F
(PID.TID 0000.0001)     ;
(PID.TID 0000.0001) PTRACERS_ref = /* Reference vertical profile */
(PID.TID 0000.0001)    35 @  0.000000000000000E+00              /* K =  1: 35 */
(PID.TID 0000.0001)     ;
(PID.TID 0000.0001) PTRACERS_EvPrRn =/* tracer conc. in Evap. & Rain */
(PID.TID 0000.0001)                 1.234567000000000E+05
(PID.TID 0000.0001)     ;
(PID.TID 0000.0001)  -----------------------------------
(PID.TID 0000.0001)  tracer number :   20
(PID.TID 0000.0001) PTRACERS_ioLabel = /* tracer IO Label */
(PID.TID 0000.0001)               '20'
(PID.TID 0000.0001)     ;
(PID.TID 0000.0001) PTRACERS_advScheme = /* Advection Scheme */
(PID.TID 0000.0001)                      33
(PID.TID 0000.0001)     ;
(PID.TID 0000.0001) PTRACERS_ImplVertAdv = /* implicit vert. advection flag */
(PID.TID 0000.0001)                   F
(PID.TID 0000.0001)     ;
(PID.TID 0000.0001) PTRACERS_diffKh = /* Laplacian Diffusivity */
(PID.TID 0000.0001)                 0.000000000000000E+00
(PID.TID 0000.0001)     ;
(PID.TID 0000.0001) PTRACERS_diffK4 = /* Biharmonic Diffusivity */
(PID.TID 0000.0001)                 0.000000000000000E+00
(PID.TID 0000.0001)     ;
(PID.TID 0000.0001) PTRACERS_diffKrNr = /* Vertical Diffusivity */
(PID.TID 0000.0001)    35 @  1.000000000000000E-05              /* K =  1: 35 */
(PID.TID 0000.0001)     ;
(PID.TID 0000.0001) PTRACERS_useGMRedi = /* apply GM-Redi */
(PID.TID 0000.0001)                   F
(PID.TID 0000.0001)     ;
(PID.TID 0000.0001) PTRACERS_useKPP = /* apply KPP scheme */
(PID.TID 0000.0001)                   F
(PID.TID 0000.0001)     ;
(PID.TID 0000.0001) PTRACERS_ref = /* Reference vertical profile */
(PID.TID 0000.0001)    35 @  0.000000000000000E+00              /* K =  1: 35 */
(PID.TID 0000.0001)     ;
(PID.TID 0000.0001) PTRACERS_EvPrRn =/* tracer conc. in Evap. & Rain */
(PID.TID 0000.0001)                 1.234567000000000E+05
(PID.TID 0000.0001)     ;
(PID.TID 0000.0001)  -----------------------------------
(PID.TID 0000.0001)  tracer number :   21
(PID.TID 0000.0001) PTRACERS_ioLabel = /* tracer IO Label */
(PID.TID 0000.0001)               '21'
(PID.TID 0000.0001)     ;
(PID.TID 0000.0001) PTRACERS_advScheme = /* Advection Scheme */
(PID.TID 0000.0001)                      33
(PID.TID 0000.0001)     ;
(PID.TID 0000.0001) PTRACERS_ImplVertAdv = /* implicit vert. advection flag */
(PID.TID 0000.0001)                   F
(PID.TID 0000.0001)     ;
(PID.TID 0000.0001) PTRACERS_diffKh = /* Laplacian Diffusivity */
(PID.TID 0000.0001)                 0.000000000000000E+00
(PID.TID 0000.0001)     ;
(PID.TID 0000.0001) PTRACERS_diffK4 = /* Biharmonic Diffusivity */
(PID.TID 0000.0001)                 0.000000000000000E+00
(PID.TID 0000.0001)     ;
(PID.TID 0000.0001) PTRACERS_diffKrNr = /* Vertical Diffusivity */
(PID.TID 0000.0001)    35 @  1.000000000000000E-05              /* K =  1: 35 */
(PID.TID 0000.0001)     ;
(PID.TID 0000.0001) PTRACERS_useGMRedi = /* apply GM-Redi */
(PID.TID 0000.0001)                   F
(PID.TID 0000.0001)     ;
(PID.TID 0000.0001) PTRACERS_useKPP = /* apply KPP scheme */
(PID.TID 0000.0001)                   F
(PID.TID 0000.0001)     ;
(PID.TID 0000.0001) PTRACERS_ref = /* Reference vertical profile */
(PID.TID 0000.0001)    35 @  0.000000000000000E+00              /* K =  1: 35 */
(PID.TID 0000.0001)     ;
(PID.TID 0000.0001) PTRACERS_EvPrRn =/* tracer conc. in Evap. & Rain */
(PID.TID 0000.0001)                 1.234567000000000E+05
(PID.TID 0000.0001)     ;
(PID.TID 0000.0001)  -----------------------------------
(PID.TID 0000.0001)  tracer number :   22
(PID.TID 0000.0001) PTRACERS_ioLabel = /* tracer IO Label */
(PID.TID 0000.0001)               '22'
(PID.TID 0000.0001)     ;
(PID.TID 0000.0001) PTRACERS_advScheme = /* Advection Scheme */
(PID.TID 0000.0001)                      33
(PID.TID 0000.0001)     ;
(PID.TID 0000.0001) PTRACERS_ImplVertAdv = /* implicit vert. advection flag */
(PID.TID 0000.0001)                   F
(PID.TID 0000.0001)     ;
(PID.TID 0000.0001) PTRACERS_diffKh = /* Laplacian Diffusivity */
(PID.TID 0000.0001)                 0.000000000000000E+00
(PID.TID 0000.0001)     ;
(PID.TID 0000.0001) PTRACERS_diffK4 = /* Biharmonic Diffusivity */
(PID.TID 0000.0001)                 0.000000000000000E+00
(PID.TID 0000.0001)     ;
(PID.TID 0000.0001) PTRACERS_diffKrNr = /* Vertical Diffusivity */
(PID.TID 0000.0001)    35 @  1.000000000000000E-05              /* K =  1: 35 */
(PID.TID 0000.0001)     ;
(PID.TID 0000.0001) PTRACERS_useGMRedi = /* apply GM-Redi */
(PID.TID 0000.0001)                   F
(PID.TID 0000.0001)     ;
(PID.TID 0000.0001) PTRACERS_useKPP = /* apply KPP scheme */
(PID.TID 0000.0001)                   F
(PID.TID 0000.0001)     ;
(PID.TID 0000.0001) PTRACERS_ref = /* Reference vertical profile */
(PID.TID 0000.0001)    35 @  0.000000000000000E+00              /* K =  1: 35 */
(PID.TID 0000.0001)     ;
(PID.TID 0000.0001) PTRACERS_EvPrRn =/* tracer conc. in Evap. & Rain */
(PID.TID 0000.0001)                 1.234567000000000E+05
(PID.TID 0000.0001)     ;
(PID.TID 0000.0001)  -----------------------------------
(PID.TID 0000.0001)  tracer number :   23
(PID.TID 0000.0001) PTRACERS_ioLabel = /* tracer IO Label */
(PID.TID 0000.0001)               '23'
(PID.TID 0000.0001)     ;
(PID.TID 0000.0001) PTRACERS_advScheme = /* Advection Scheme */
(PID.TID 0000.0001)                      33
(PID.TID 0000.0001)     ;
(PID.TID 0000.0001) PTRACERS_ImplVertAdv = /* implicit vert. advection flag */
(PID.TID 0000.0001)                   F
(PID.TID 0000.0001)     ;
(PID.TID 0000.0001) PTRACERS_diffKh = /* Laplacian Diffusivity */
(PID.TID 0000.0001)                 0.000000000000000E+00
(PID.TID 0000.0001)     ;
(PID.TID 0000.0001) PTRACERS_diffK4 = /* Biharmonic Diffusivity */
(PID.TID 0000.0001)                 0.000000000000000E+00
(PID.TID 0000.0001)     ;
(PID.TID 0000.0001) PTRACERS_diffKrNr = /* Vertical Diffusivity */
(PID.TID 0000.0001)    35 @  1.000000000000000E-05              /* K =  1: 35 */
(PID.TID 0000.0001)     ;
(PID.TID 0000.0001) PTRACERS_useGMRedi = /* apply GM-Redi */
(PID.TID 0000.0001)                   F
(PID.TID 0000.0001)     ;
(PID.TID 0000.0001) PTRACERS_useKPP = /* apply KPP scheme */
(PID.TID 0000.0001)                   F
(PID.TID 0000.0001)     ;
(PID.TID 0000.0001) PTRACERS_ref = /* Reference vertical profile */
(PID.TID 0000.0001)    35 @  0.000000000000000E+00              /* K =  1: 35 */
(PID.TID 0000.0001)     ;
(PID.TID 0000.0001) PTRACERS_EvPrRn =/* tracer conc. in Evap. & Rain */
(PID.TID 0000.0001)                 1.234567000000000E+05
(PID.TID 0000.0001)     ;
(PID.TID 0000.0001)  -----------------------------------
(PID.TID 0000.0001)  tracer number :   24
(PID.TID 0000.0001) PTRACERS_ioLabel = /* tracer IO Label */
(PID.TID 0000.0001)               '24'
(PID.TID 0000.0001)     ;
(PID.TID 0000.0001) PTRACERS_advScheme = /* Advection Scheme */
(PID.TID 0000.0001)                      33
(PID.TID 0000.0001)     ;
(PID.TID 0000.0001) PTRACERS_ImplVertAdv = /* implicit vert. advection flag */
(PID.TID 0000.0001)                   F
(PID.TID 0000.0001)     ;
(PID.TID 0000.0001) PTRACERS_diffKh = /* Laplacian Diffusivity */
(PID.TID 0000.0001)                 0.000000000000000E+00
(PID.TID 0000.0001)     ;
(PID.TID 0000.0001) PTRACERS_diffK4 = /* Biharmonic Diffusivity */
(PID.TID 0000.0001)                 0.000000000000000E+00
(PID.TID 0000.0001)     ;
(PID.TID 0000.0001) PTRACERS_diffKrNr = /* Vertical Diffusivity */
(PID.TID 0000.0001)    35 @  1.000000000000000E-05              /* K =  1: 35 */
(PID.TID 0000.0001)     ;
(PID.TID 0000.0001) PTRACERS_useGMRedi = /* apply GM-Redi */
(PID.TID 0000.0001)                   F
(PID.TID 0000.0001)     ;
(PID.TID 0000.0001) PTRACERS_useKPP = /* apply KPP scheme */
(PID.TID 0000.0001)                   F
(PID.TID 0000.0001)     ;
(PID.TID 0000.0001) PTRACERS_ref = /* Reference vertical profile */
(PID.TID 0000.0001)    35 @  0.000000000000000E+00              /* K =  1: 35 */
(PID.TID 0000.0001)     ;
(PID.TID 0000.0001) PTRACERS_EvPrRn =/* tracer conc. in Evap. & Rain */
(PID.TID 0000.0001)                 1.234567000000000E+05
(PID.TID 0000.0001)     ;
(PID.TID 0000.0001)  -----------------------------------
(PID.TID 0000.0001)  tracer number :   25
(PID.TID 0000.0001) PTRACERS_ioLabel = /* tracer IO Label */
(PID.TID 0000.0001)               '25'
(PID.TID 0000.0001)     ;
(PID.TID 0000.0001) PTRACERS_advScheme = /* Advection Scheme */
(PID.TID 0000.0001)                      33
(PID.TID 0000.0001)     ;
(PID.TID 0000.0001) PTRACERS_ImplVertAdv = /* implicit vert. advection flag */
(PID.TID 0000.0001)                   F
(PID.TID 0000.0001)     ;
(PID.TID 0000.0001) PTRACERS_diffKh = /* Laplacian Diffusivity */
(PID.TID 0000.0001)                 0.000000000000000E+00
(PID.TID 0000.0001)     ;
(PID.TID 0000.0001) PTRACERS_diffK4 = /* Biharmonic Diffusivity */
(PID.TID 0000.0001)                 0.000000000000000E+00
(PID.TID 0000.0001)     ;
(PID.TID 0000.0001) PTRACERS_diffKrNr = /* Vertical Diffusivity */
(PID.TID 0000.0001)    35 @  1.000000000000000E-05              /* K =  1: 35 */
(PID.TID 0000.0001)     ;
(PID.TID 0000.0001) PTRACERS_useGMRedi = /* apply GM-Redi */
(PID.TID 0000.0001)                   F
(PID.TID 0000.0001)     ;
(PID.TID 0000.0001) PTRACERS_useKPP = /* apply KPP scheme */
(PID.TID 0000.0001)                   F
(PID.TID 0000.0001)     ;
(PID.TID 0000.0001) PTRACERS_ref = /* Reference vertical profile */
(PID.TID 0000.0001)    35 @  0.000000000000000E+00              /* K =  1: 35 */
(PID.TID 0000.0001)     ;
(PID.TID 0000.0001) PTRACERS_EvPrRn =/* tracer conc. in Evap. & Rain */
(PID.TID 0000.0001)                 1.234567000000000E+05
(PID.TID 0000.0001)     ;
(PID.TID 0000.0001)  -----------------------------------
(PID.TID 0000.0001)  tracer number :   26
(PID.TID 0000.0001) PTRACERS_ioLabel = /* tracer IO Label */
(PID.TID 0000.0001)               '26'
(PID.TID 0000.0001)     ;
(PID.TID 0000.0001) PTRACERS_advScheme = /* Advection Scheme */
(PID.TID 0000.0001)                      33
(PID.TID 0000.0001)     ;
(PID.TID 0000.0001) PTRACERS_ImplVertAdv = /* implicit vert. advection flag */
(PID.TID 0000.0001)                   F
(PID.TID 0000.0001)     ;
(PID.TID 0000.0001) PTRACERS_diffKh = /* Laplacian Diffusivity */
(PID.TID 0000.0001)                 0.000000000000000E+00
(PID.TID 0000.0001)     ;
(PID.TID 0000.0001) PTRACERS_diffK4 = /* Biharmonic Diffusivity */
(PID.TID 0000.0001)                 0.000000000000000E+00
(PID.TID 0000.0001)     ;
(PID.TID 0000.0001) PTRACERS_diffKrNr = /* Vertical Diffusivity */
(PID.TID 0000.0001)    35 @  1.000000000000000E-05              /* K =  1: 35 */
(PID.TID 0000.0001)     ;
(PID.TID 0000.0001) PTRACERS_useGMRedi = /* apply GM-Redi */
(PID.TID 0000.0001)                   F
(PID.TID 0000.0001)     ;
(PID.TID 0000.0001) PTRACERS_useKPP = /* apply KPP scheme */
(PID.TID 0000.0001)                   F
(PID.TID 0000.0001)     ;
(PID.TID 0000.0001) PTRACERS_ref = /* Reference vertical profile */
(PID.TID 0000.0001)    35 @  0.000000000000000E+00              /* K =  1: 35 */
(PID.TID 0000.0001)     ;
(PID.TID 0000.0001) PTRACERS_EvPrRn =/* tracer conc. in Evap. & Rain */
(PID.TID 0000.0001)                 1.234567000000000E+05
(PID.TID 0000.0001)     ;
(PID.TID 0000.0001)  -----------------------------------
(PID.TID 0000.0001)  tracer number :   27
(PID.TID 0000.0001) PTRACERS_ioLabel = /* tracer IO Label */
(PID.TID 0000.0001)               '27'
(PID.TID 0000.0001)     ;
(PID.TID 0000.0001) PTRACERS_advScheme = /* Advection Scheme */
(PID.TID 0000.0001)                      33
(PID.TID 0000.0001)     ;
(PID.TID 0000.0001) PTRACERS_ImplVertAdv = /* implicit vert. advection flag */
(PID.TID 0000.0001)                   F
(PID.TID 0000.0001)     ;
(PID.TID 0000.0001) PTRACERS_diffKh = /* Laplacian Diffusivity */
(PID.TID 0000.0001)                 0.000000000000000E+00
(PID.TID 0000.0001)     ;
(PID.TID 0000.0001) PTRACERS_diffK4 = /* Biharmonic Diffusivity */
(PID.TID 0000.0001)                 0.000000000000000E+00
(PID.TID 0000.0001)     ;
(PID.TID 0000.0001) PTRACERS_diffKrNr = /* Vertical Diffusivity */
(PID.TID 0000.0001)    35 @  1.000000000000000E-05              /* K =  1: 35 */
(PID.TID 0000.0001)     ;
(PID.TID 0000.0001) PTRACERS_useGMRedi = /* apply GM-Redi */
(PID.TID 0000.0001)                   F
(PID.TID 0000.0001)     ;
(PID.TID 0000.0001) PTRACERS_useKPP = /* apply KPP scheme */
(PID.TID 0000.0001)                   F
(PID.TID 0000.0001)     ;
(PID.TID 0000.0001) PTRACERS_ref = /* Reference vertical profile */
(PID.TID 0000.0001)    35 @  0.000000000000000E+00              /* K =  1: 35 */
(PID.TID 0000.0001)     ;
(PID.TID 0000.0001) PTRACERS_EvPrRn =/* tracer conc. in Evap. & Rain */
(PID.TID 0000.0001)                 1.234567000000000E+05
(PID.TID 0000.0001)     ;
(PID.TID 0000.0001)  -----------------------------------
(PID.TID 0000.0001)  tracer number :   28
(PID.TID 0000.0001) PTRACERS_ioLabel = /* tracer IO Label */
(PID.TID 0000.0001)               '28'
(PID.TID 0000.0001)     ;
(PID.TID 0000.0001) PTRACERS_advScheme = /* Advection Scheme */
(PID.TID 0000.0001)                      33
(PID.TID 0000.0001)     ;
(PID.TID 0000.0001) PTRACERS_ImplVertAdv = /* implicit vert. advection flag */
(PID.TID 0000.0001)                   F
(PID.TID 0000.0001)     ;
(PID.TID 0000.0001) PTRACERS_diffKh = /* Laplacian Diffusivity */
(PID.TID 0000.0001)                 0.000000000000000E+00
(PID.TID 0000.0001)     ;
(PID.TID 0000.0001) PTRACERS_diffK4 = /* Biharmonic Diffusivity */
(PID.TID 0000.0001)                 0.000000000000000E+00
(PID.TID 0000.0001)     ;
(PID.TID 0000.0001) PTRACERS_diffKrNr = /* Vertical Diffusivity */
(PID.TID 0000.0001)    35 @  1.000000000000000E-05              /* K =  1: 35 */
(PID.TID 0000.0001)     ;
(PID.TID 0000.0001) PTRACERS_useGMRedi = /* apply GM-Redi */
(PID.TID 0000.0001)                   F
(PID.TID 0000.0001)     ;
(PID.TID 0000.0001) PTRACERS_useKPP = /* apply KPP scheme */
(PID.TID 0000.0001)                   F
(PID.TID 0000.0001)     ;
(PID.TID 0000.0001) PTRACERS_ref = /* Reference vertical profile */
(PID.TID 0000.0001)    35 @  0.000000000000000E+00              /* K =  1: 35 */
(PID.TID 0000.0001)     ;
(PID.TID 0000.0001) PTRACERS_EvPrRn =/* tracer conc. in Evap. & Rain */
(PID.TID 0000.0001)                 1.234567000000000E+05
(PID.TID 0000.0001)     ;
(PID.TID 0000.0001)  -----------------------------------
(PID.TID 0000.0001)  tracer number :   29
(PID.TID 0000.0001) PTRACERS_ioLabel = /* tracer IO Label */
(PID.TID 0000.0001)               '29'
(PID.TID 0000.0001)     ;
(PID.TID 0000.0001) PTRACERS_advScheme = /* Advection Scheme */
(PID.TID 0000.0001)                      33
(PID.TID 0000.0001)     ;
(PID.TID 0000.0001) PTRACERS_ImplVertAdv = /* implicit vert. advection flag */
(PID.TID 0000.0001)                   F
(PID.TID 0000.0001)     ;
(PID.TID 0000.0001) PTRACERS_diffKh = /* Laplacian Diffusivity */
(PID.TID 0000.0001)                 0.000000000000000E+00
(PID.TID 0000.0001)     ;
(PID.TID 0000.0001) PTRACERS_diffK4 = /* Biharmonic Diffusivity */
(PID.TID 0000.0001)                 0.000000000000000E+00
(PID.TID 0000.0001)     ;
(PID.TID 0000.0001) PTRACERS_diffKrNr = /* Vertical Diffusivity */
(PID.TID 0000.0001)    35 @  1.000000000000000E-05              /* K =  1: 35 */
(PID.TID 0000.0001)     ;
(PID.TID 0000.0001) PTRACERS_useGMRedi = /* apply GM-Redi */
(PID.TID 0000.0001)                   F
(PID.TID 0000.0001)     ;
(PID.TID 0000.0001) PTRACERS_useKPP = /* apply KPP scheme */
(PID.TID 0000.0001)                   F
(PID.TID 0000.0001)     ;
(PID.TID 0000.0001) PTRACERS_ref = /* Reference vertical profile */
(PID.TID 0000.0001)    35 @  0.000000000000000E+00              /* K =  1: 35 */
(PID.TID 0000.0001)     ;
(PID.TID 0000.0001) PTRACERS_EvPrRn =/* tracer conc. in Evap. & Rain */
(PID.TID 0000.0001)                 1.234567000000000E+05
(PID.TID 0000.0001)     ;
(PID.TID 0000.0001)  -----------------------------------
(PID.TID 0000.0001)  tracer number :   30
(PID.TID 0000.0001) PTRACERS_ioLabel = /* tracer IO Label */
(PID.TID 0000.0001)               '30'
(PID.TID 0000.0001)     ;
(PID.TID 0000.0001) PTRACERS_advScheme = /* Advection Scheme */
(PID.TID 0000.0001)                      33
(PID.TID 0000.0001)     ;
(PID.TID 0000.0001) PTRACERS_ImplVertAdv = /* implicit vert. advection flag */
(PID.TID 0000.0001)                   F
(PID.TID 0000.0001)     ;
(PID.TID 0000.0001) PTRACERS_diffKh = /* Laplacian Diffusivity */
(PID.TID 0000.0001)                 0.000000000000000E+00
(PID.TID 0000.0001)     ;
(PID.TID 0000.0001) PTRACERS_diffK4 = /* Biharmonic Diffusivity */
(PID.TID 0000.0001)                 0.000000000000000E+00
(PID.TID 0000.0001)     ;
(PID.TID 0000.0001) PTRACERS_diffKrNr = /* Vertical Diffusivity */
(PID.TID 0000.0001)    35 @  1.000000000000000E-05              /* K =  1: 35 */
(PID.TID 0000.0001)     ;
(PID.TID 0000.0001) PTRACERS_useGMRedi = /* apply GM-Redi */
(PID.TID 0000.0001)                   F
(PID.TID 0000.0001)     ;
(PID.TID 0000.0001) PTRACERS_useKPP = /* apply KPP scheme */
(PID.TID 0000.0001)                   F
(PID.TID 0000.0001)     ;
(PID.TID 0000.0001) PTRACERS_ref = /* Reference vertical profile */
(PID.TID 0000.0001)    35 @  0.000000000000000E+00              /* K =  1: 35 */
(PID.TID 0000.0001)     ;
(PID.TID 0000.0001) PTRACERS_EvPrRn =/* tracer conc. in Evap. & Rain */
(PID.TID 0000.0001)                 1.234567000000000E+05
(PID.TID 0000.0001)     ;
(PID.TID 0000.0001)  -----------------------------------
(PID.TID 0000.0001)  tracer number :   31
(PID.TID 0000.0001) PTRACERS_ioLabel = /* tracer IO Label */
(PID.TID 0000.0001)               '31'
(PID.TID 0000.0001)     ;
(PID.TID 0000.0001) PTRACERS_advScheme = /* Advection Scheme */
(PID.TID 0000.0001)                      33
(PID.TID 0000.0001)     ;
(PID.TID 0000.0001) PTRACERS_ImplVertAdv = /* implicit vert. advection flag */
(PID.TID 0000.0001)                   F
(PID.TID 0000.0001)     ;
(PID.TID 0000.0001) PTRACERS_diffKh = /* Laplacian Diffusivity */
(PID.TID 0000.0001)                 0.000000000000000E+00
(PID.TID 0000.0001)     ;
(PID.TID 0000.0001) PTRACERS_diffK4 = /* Biharmonic Diffusivity */
(PID.TID 0000.0001)                 0.000000000000000E+00
(PID.TID 0000.0001)     ;
(PID.TID 0000.0001) PTRACERS_diffKrNr = /* Vertical Diffusivity */
(PID.TID 0000.0001)    35 @  1.000000000000000E-05              /* K =  1: 35 */
(PID.TID 0000.0001)     ;
(PID.TID 0000.0001) PTRACERS_useGMRedi = /* apply GM-Redi */
(PID.TID 0000.0001)                   F
(PID.TID 0000.0001)     ;
(PID.TID 0000.0001) PTRACERS_useKPP = /* apply KPP scheme */
(PID.TID 0000.0001)                   F
(PID.TID 0000.0001)     ;
(PID.TID 0000.0001) PTRACERS_ref = /* Reference vertical profile */
(PID.TID 0000.0001)    35 @  0.000000000000000E+00              /* K =  1: 35 */
(PID.TID 0000.0001)     ;
(PID.TID 0000.0001) PTRACERS_EvPrRn =/* tracer conc. in Evap. & Rain */
(PID.TID 0000.0001)                 1.234567000000000E+05
(PID.TID 0000.0001)     ;
(PID.TID 0000.0001)  -----------------------------------
(PID.TID 0000.0001)  tracer number :   32
(PID.TID 0000.0001) PTRACERS_ioLabel = /* tracer IO Label */
(PID.TID 0000.0001)               '32'
(PID.TID 0000.0001)     ;
(PID.TID 0000.0001) PTRACERS_advScheme = /* Advection Scheme */
(PID.TID 0000.0001)                      33
(PID.TID 0000.0001)     ;
(PID.TID 0000.0001) PTRACERS_ImplVertAdv = /* implicit vert. advection flag */
(PID.TID 0000.0001)                   F
(PID.TID 0000.0001)     ;
(PID.TID 0000.0001) PTRACERS_diffKh = /* Laplacian Diffusivity */
(PID.TID 0000.0001)                 0.000000000000000E+00
(PID.TID 0000.0001)     ;
(PID.TID 0000.0001) PTRACERS_diffK4 = /* Biharmonic Diffusivity */
(PID.TID 0000.0001)                 0.000000000000000E+00
(PID.TID 0000.0001)     ;
(PID.TID 0000.0001) PTRACERS_diffKrNr = /* Vertical Diffusivity */
(PID.TID 0000.0001)    35 @  1.000000000000000E-05              /* K =  1: 35 */
(PID.TID 0000.0001)     ;
(PID.TID 0000.0001) PTRACERS_useGMRedi = /* apply GM-Redi */
(PID.TID 0000.0001)                   F
(PID.TID 0000.0001)     ;
(PID.TID 0000.0001) PTRACERS_useKPP = /* apply KPP scheme */
(PID.TID 0000.0001)                   F
(PID.TID 0000.0001)     ;
(PID.TID 0000.0001) PTRACERS_ref = /* Reference vertical profile */
(PID.TID 0000.0001)    35 @  0.000000000000000E+00              /* K =  1: 35 */
(PID.TID 0000.0001)     ;
(PID.TID 0000.0001) PTRACERS_EvPrRn =/* tracer conc. in Evap. & Rain */
(PID.TID 0000.0001)                 1.234567000000000E+05
(PID.TID 0000.0001)     ;
(PID.TID 0000.0001)  -----------------------------------
(PID.TID 0000.0001)  tracer number :   33
(PID.TID 0000.0001) PTRACERS_ioLabel = /* tracer IO Label */
(PID.TID 0000.0001)               '33'
(PID.TID 0000.0001)     ;
(PID.TID 0000.0001) PTRACERS_advScheme = /* Advection Scheme */
(PID.TID 0000.0001)                      33
(PID.TID 0000.0001)     ;
(PID.TID 0000.0001) PTRACERS_ImplVertAdv = /* implicit vert. advection flag */
(PID.TID 0000.0001)                   F
(PID.TID 0000.0001)     ;
(PID.TID 0000.0001) PTRACERS_diffKh = /* Laplacian Diffusivity */
(PID.TID 0000.0001)                 0.000000000000000E+00
(PID.TID 0000.0001)     ;
(PID.TID 0000.0001) PTRACERS_diffK4 = /* Biharmonic Diffusivity */
(PID.TID 0000.0001)                 0.000000000000000E+00
(PID.TID 0000.0001)     ;
(PID.TID 0000.0001) PTRACERS_diffKrNr = /* Vertical Diffusivity */
(PID.TID 0000.0001)    35 @  1.000000000000000E-05              /* K =  1: 35 */
(PID.TID 0000.0001)     ;
(PID.TID 0000.0001) PTRACERS_useGMRedi = /* apply GM-Redi */
(PID.TID 0000.0001)                   F
(PID.TID 0000.0001)     ;
(PID.TID 0000.0001) PTRACERS_useKPP = /* apply KPP scheme */
(PID.TID 0000.0001)                   F
(PID.TID 0000.0001)     ;
(PID.TID 0000.0001) PTRACERS_ref = /* Reference vertical profile */
(PID.TID 0000.0001)    35 @  0.000000000000000E+00              /* K =  1: 35 */
(PID.TID 0000.0001)     ;
(PID.TID 0000.0001) PTRACERS_EvPrRn =/* tracer conc. in Evap. & Rain */
(PID.TID 0000.0001)                 1.234567000000000E+05
(PID.TID 0000.0001)     ;
(PID.TID 0000.0001)  -----------------------------------
(PID.TID 0000.0001)  tracer number :   34
(PID.TID 0000.0001) PTRACERS_ioLabel = /* tracer IO Label */
(PID.TID 0000.0001)               '34'
(PID.TID 0000.0001)     ;
(PID.TID 0000.0001) PTRACERS_advScheme = /* Advection Scheme */
(PID.TID 0000.0001)                      33
(PID.TID 0000.0001)     ;
(PID.TID 0000.0001) PTRACERS_ImplVertAdv = /* implicit vert. advection flag */
(PID.TID 0000.0001)                   F
(PID.TID 0000.0001)     ;
(PID.TID 0000.0001) PTRACERS_diffKh = /* Laplacian Diffusivity */
(PID.TID 0000.0001)                 0.000000000000000E+00
(PID.TID 0000.0001)     ;
(PID.TID 0000.0001) PTRACERS_diffK4 = /* Biharmonic Diffusivity */
(PID.TID 0000.0001)                 0.000000000000000E+00
(PID.TID 0000.0001)     ;
(PID.TID 0000.0001) PTRACERS_diffKrNr = /* Vertical Diffusivity */
(PID.TID 0000.0001)    35 @  1.000000000000000E-05              /* K =  1: 35 */
(PID.TID 0000.0001)     ;
(PID.TID 0000.0001) PTRACERS_useGMRedi = /* apply GM-Redi */
(PID.TID 0000.0001)                   F
(PID.TID 0000.0001)     ;
(PID.TID 0000.0001) PTRACERS_useKPP = /* apply KPP scheme */
(PID.TID 0000.0001)                   F
(PID.TID 0000.0001)     ;
(PID.TID 0000.0001) PTRACERS_ref = /* Reference vertical profile */
(PID.TID 0000.0001)    35 @  0.000000000000000E+00              /* K =  1: 35 */
(PID.TID 0000.0001)     ;
(PID.TID 0000.0001) PTRACERS_EvPrRn =/* tracer conc. in Evap. & Rain */
(PID.TID 0000.0001)                 1.234567000000000E+05
(PID.TID 0000.0001)     ;
(PID.TID 0000.0001)  -----------------------------------
(PID.TID 0000.0001)  tracer number :   35
(PID.TID 0000.0001) PTRACERS_ioLabel = /* tracer IO Label */
(PID.TID 0000.0001)               '35'
(PID.TID 0000.0001)     ;
(PID.TID 0000.0001) PTRACERS_advScheme = /* Advection Scheme */
(PID.TID 0000.0001)                      33
(PID.TID 0000.0001)     ;
(PID.TID 0000.0001) PTRACERS_ImplVertAdv = /* implicit vert. advection flag */
(PID.TID 0000.0001)                   F
(PID.TID 0000.0001)     ;
(PID.TID 0000.0001) PTRACERS_diffKh = /* Laplacian Diffusivity */
(PID.TID 0000.0001)                 0.000000000000000E+00
(PID.TID 0000.0001)     ;
(PID.TID 0000.0001) PTRACERS_diffK4 = /* Biharmonic Diffusivity */
(PID.TID 0000.0001)                 0.000000000000000E+00
(PID.TID 0000.0001)     ;
(PID.TID 0000.0001) PTRACERS_diffKrNr = /* Vertical Diffusivity */
(PID.TID 0000.0001)    35 @  1.000000000000000E-05              /* K =  1: 35 */
(PID.TID 0000.0001)     ;
(PID.TID 0000.0001) PTRACERS_useGMRedi = /* apply GM-Redi */
(PID.TID 0000.0001)                   F
(PID.TID 0000.0001)     ;
(PID.TID 0000.0001) PTRACERS_useKPP = /* apply KPP scheme */
(PID.TID 0000.0001)                   F
(PID.TID 0000.0001)     ;
(PID.TID 0000.0001) PTRACERS_ref = /* Reference vertical profile */
(PID.TID 0000.0001)    35 @  0.000000000000000E+00              /* K =  1: 35 */
(PID.TID 0000.0001)     ;
(PID.TID 0000.0001) PTRACERS_EvPrRn =/* tracer conc. in Evap. & Rain */
(PID.TID 0000.0001)                 1.234567000000000E+05
(PID.TID 0000.0001)     ;
(PID.TID 0000.0001)  -----------------------------------
(PID.TID 0000.0001)  tracer number :   36
(PID.TID 0000.0001) PTRACERS_ioLabel = /* tracer IO Label */
(PID.TID 0000.0001)               '36'
(PID.TID 0000.0001)     ;
(PID.TID 0000.0001) PTRACERS_advScheme = /* Advection Scheme */
(PID.TID 0000.0001)                      33
(PID.TID 0000.0001)     ;
(PID.TID 0000.0001) PTRACERS_ImplVertAdv = /* implicit vert. advection flag */
(PID.TID 0000.0001)                   F
(PID.TID 0000.0001)     ;
(PID.TID 0000.0001) PTRACERS_diffKh = /* Laplacian Diffusivity */
(PID.TID 0000.0001)                 0.000000000000000E+00
(PID.TID 0000.0001)     ;
(PID.TID 0000.0001) PTRACERS_diffK4 = /* Biharmonic Diffusivity */
(PID.TID 0000.0001)                 0.000000000000000E+00
(PID.TID 0000.0001)     ;
(PID.TID 0000.0001) PTRACERS_diffKrNr = /* Vertical Diffusivity */
(PID.TID 0000.0001)    35 @  1.000000000000000E-05              /* K =  1: 35 */
(PID.TID 0000.0001)     ;
(PID.TID 0000.0001) PTRACERS_useGMRedi = /* apply GM-Redi */
(PID.TID 0000.0001)                   F
(PID.TID 0000.0001)     ;
(PID.TID 0000.0001) PTRACERS_useKPP = /* apply KPP scheme */
(PID.TID 0000.0001)                   F
(PID.TID 0000.0001)     ;
(PID.TID 0000.0001) PTRACERS_ref = /* Reference vertical profile */
(PID.TID 0000.0001)    35 @  0.000000000000000E+00              /* K =  1: 35 */
(PID.TID 0000.0001)     ;
(PID.TID 0000.0001) PTRACERS_EvPrRn =/* tracer conc. in Evap. & Rain */
(PID.TID 0000.0001)                 1.234567000000000E+05
(PID.TID 0000.0001)     ;
(PID.TID 0000.0001)  -----------------------------------
(PID.TID 0000.0001)  tracer number :   37
(PID.TID 0000.0001) PTRACERS_ioLabel = /* tracer IO Label */
(PID.TID 0000.0001)               '37'
(PID.TID 0000.0001)     ;
(PID.TID 0000.0001) PTRACERS_advScheme = /* Advection Scheme */
(PID.TID 0000.0001)                      33
(PID.TID 0000.0001)     ;
(PID.TID 0000.0001) PTRACERS_ImplVertAdv = /* implicit vert. advection flag */
(PID.TID 0000.0001)                   F
(PID.TID 0000.0001)     ;
(PID.TID 0000.0001) PTRACERS_diffKh = /* Laplacian Diffusivity */
(PID.TID 0000.0001)                 0.000000000000000E+00
(PID.TID 0000.0001)     ;
(PID.TID 0000.0001) PTRACERS_diffK4 = /* Biharmonic Diffusivity */
(PID.TID 0000.0001)                 0.000000000000000E+00
(PID.TID 0000.0001)     ;
(PID.TID 0000.0001) PTRACERS_diffKrNr = /* Vertical Diffusivity */
(PID.TID 0000.0001)    35 @  1.000000000000000E-05              /* K =  1: 35 */
(PID.TID 0000.0001)     ;
(PID.TID 0000.0001) PTRACERS_useGMRedi = /* apply GM-Redi */
(PID.TID 0000.0001)                   F
(PID.TID 0000.0001)     ;
(PID.TID 0000.0001) PTRACERS_useKPP = /* apply KPP scheme */
(PID.TID 0000.0001)                   F
(PID.TID 0000.0001)     ;
(PID.TID 0000.0001) PTRACERS_ref = /* Reference vertical profile */
(PID.TID 0000.0001)    35 @  0.000000000000000E+00              /* K =  1: 35 */
(PID.TID 0000.0001)     ;
(PID.TID 0000.0001) PTRACERS_EvPrRn =/* tracer conc. in Evap. & Rain */
(PID.TID 0000.0001)                 1.234567000000000E+05
(PID.TID 0000.0001)     ;
(PID.TID 0000.0001)  -----------------------------------
(PID.TID 0000.0001)  tracer number :   38
(PID.TID 0000.0001) PTRACERS_ioLabel = /* tracer IO Label */
(PID.TID 0000.0001)               '38'
(PID.TID 0000.0001)     ;
(PID.TID 0000.0001) PTRACERS_advScheme = /* Advection Scheme */
(PID.TID 0000.0001)                      33
(PID.TID 0000.0001)     ;
(PID.TID 0000.0001) PTRACERS_ImplVertAdv = /* implicit vert. advection flag */
(PID.TID 0000.0001)                   F
(PID.TID 0000.0001)     ;
(PID.TID 0000.0001) PTRACERS_diffKh = /* Laplacian Diffusivity */
(PID.TID 0000.0001)                 0.000000000000000E+00
(PID.TID 0000.0001)     ;
(PID.TID 0000.0001) PTRACERS_diffK4 = /* Biharmonic Diffusivity */
(PID.TID 0000.0001)                 0.000000000000000E+00
(PID.TID 0000.0001)     ;
(PID.TID 0000.0001) PTRACERS_diffKrNr = /* Vertical Diffusivity */
(PID.TID 0000.0001)    35 @  1.000000000000000E-05              /* K =  1: 35 */
(PID.TID 0000.0001)     ;
(PID.TID 0000.0001) PTRACERS_useGMRedi = /* apply GM-Redi */
(PID.TID 0000.0001)                   F
(PID.TID 0000.0001)     ;
(PID.TID 0000.0001) PTRACERS_useKPP = /* apply KPP scheme */
(PID.TID 0000.0001)                   F
(PID.TID 0000.0001)     ;
(PID.TID 0000.0001) PTRACERS_ref = /* Reference vertical profile */
(PID.TID 0000.0001)    35 @  0.000000000000000E+00              /* K =  1: 35 */
(PID.TID 0000.0001)     ;
(PID.TID 0000.0001) PTRACERS_EvPrRn =/* tracer conc. in Evap. & Rain */
(PID.TID 0000.0001)                 1.234567000000000E+05
(PID.TID 0000.0001)     ;
(PID.TID 0000.0001)  -----------------------------------
(PID.TID 0000.0001)  tracer number :   39
(PID.TID 0000.0001) PTRACERS_ioLabel = /* tracer IO Label */
(PID.TID 0000.0001)               '39'
(PID.TID 0000.0001)     ;
(PID.TID 0000.0001) PTRACERS_advScheme = /* Advection Scheme */
(PID.TID 0000.0001)                      33
(PID.TID 0000.0001)     ;
(PID.TID 0000.0001) PTRACERS_ImplVertAdv = /* implicit vert. advection flag */
(PID.TID 0000.0001)                   F
(PID.TID 0000.0001)     ;
(PID.TID 0000.0001) PTRACERS_diffKh = /* Laplacian Diffusivity */
(PID.TID 0000.0001)                 0.000000000000000E+00
(PID.TID 0000.0001)     ;
(PID.TID 0000.0001) PTRACERS_diffK4 = /* Biharmonic Diffusivity */
(PID.TID 0000.0001)                 0.000000000000000E+00
(PID.TID 0000.0001)     ;
(PID.TID 0000.0001) PTRACERS_diffKrNr = /* Vertical Diffusivity */
(PID.TID 0000.0001)    35 @  1.000000000000000E-05              /* K =  1: 35 */
(PID.TID 0000.0001)     ;
(PID.TID 0000.0001) PTRACERS_useGMRedi = /* apply GM-Redi */
(PID.TID 0000.0001)                   F
(PID.TID 0000.0001)     ;
(PID.TID 0000.0001) PTRACERS_useKPP = /* apply KPP scheme */
(PID.TID 0000.0001)                   F
(PID.TID 0000.0001)     ;
(PID.TID 0000.0001) PTRACERS_ref = /* Reference vertical profile */
(PID.TID 0000.0001)    35 @  0.000000000000000E+00              /* K =  1: 35 */
(PID.TID 0000.0001)     ;
(PID.TID 0000.0001) PTRACERS_EvPrRn =/* tracer conc. in Evap. & Rain */
(PID.TID 0000.0001)                 1.234567000000000E+05
(PID.TID 0000.0001)     ;
(PID.TID 0000.0001)  -----------------------------------
(PID.TID 0000.0001)  tracer number :   40
(PID.TID 0000.0001) PTRACERS_ioLabel = /* tracer IO Label */
(PID.TID 0000.0001)               '40'
(PID.TID 0000.0001)     ;
(PID.TID 0000.0001) PTRACERS_advScheme = /* Advection Scheme */
(PID.TID 0000.0001)                      33
(PID.TID 0000.0001)     ;
(PID.TID 0000.0001) PTRACERS_ImplVertAdv = /* implicit vert. advection flag */
(PID.TID 0000.0001)                   F
(PID.TID 0000.0001)     ;
(PID.TID 0000.0001) PTRACERS_diffKh = /* Laplacian Diffusivity */
(PID.TID 0000.0001)                 0.000000000000000E+00
(PID.TID 0000.0001)     ;
(PID.TID 0000.0001) PTRACERS_diffK4 = /* Biharmonic Diffusivity */
(PID.TID 0000.0001)                 0.000000000000000E+00
(PID.TID 0000.0001)     ;
(PID.TID 0000.0001) PTRACERS_diffKrNr = /* Vertical Diffusivity */
(PID.TID 0000.0001)    35 @  1.000000000000000E-05              /* K =  1: 35 */
(PID.TID 0000.0001)     ;
(PID.TID 0000.0001) PTRACERS_useGMRedi = /* apply GM-Redi */
(PID.TID 0000.0001)                   F
(PID.TID 0000.0001)     ;
(PID.TID 0000.0001) PTRACERS_useKPP = /* apply KPP scheme */
(PID.TID 0000.0001)                   F
(PID.TID 0000.0001)     ;
(PID.TID 0000.0001) PTRACERS_ref = /* Reference vertical profile */
(PID.TID 0000.0001)    35 @  0.000000000000000E+00              /* K =  1: 35 */
(PID.TID 0000.0001)     ;
(PID.TID 0000.0001) PTRACERS_EvPrRn =/* tracer conc. in Evap. & Rain */
(PID.TID 0000.0001)                 1.234567000000000E+05
(PID.TID 0000.0001)     ;
(PID.TID 0000.0001)  -----------------------------------
(PID.TID 0000.0001)  tracer number :   41
(PID.TID 0000.0001) PTRACERS_ioLabel = /* tracer IO Label */
(PID.TID 0000.0001)               '41'
(PID.TID 0000.0001)     ;
(PID.TID 0000.0001) PTRACERS_advScheme = /* Advection Scheme */
(PID.TID 0000.0001)                      33
(PID.TID 0000.0001)     ;
(PID.TID 0000.0001) PTRACERS_ImplVertAdv = /* implicit vert. advection flag */
(PID.TID 0000.0001)                   F
(PID.TID 0000.0001)     ;
(PID.TID 0000.0001) PTRACERS_diffKh = /* Laplacian Diffusivity */
(PID.TID 0000.0001)                 0.000000000000000E+00
(PID.TID 0000.0001)     ;
(PID.TID 0000.0001) PTRACERS_diffK4 = /* Biharmonic Diffusivity */
(PID.TID 0000.0001)                 0.000000000000000E+00
(PID.TID 0000.0001)     ;
(PID.TID 0000.0001) PTRACERS_diffKrNr = /* Vertical Diffusivity */
(PID.TID 0000.0001)    35 @  1.000000000000000E-05              /* K =  1: 35 */
(PID.TID 0000.0001)     ;
(PID.TID 0000.0001) PTRACERS_useGMRedi = /* apply GM-Redi */
(PID.TID 0000.0001)                   F
(PID.TID 0000.0001)     ;
(PID.TID 0000.0001) PTRACERS_useKPP = /* apply KPP scheme */
(PID.TID 0000.0001)                   F
(PID.TID 0000.0001)     ;
(PID.TID 0000.0001) PTRACERS_ref = /* Reference vertical profile */
(PID.TID 0000.0001)    35 @  0.000000000000000E+00              /* K =  1: 35 */
(PID.TID 0000.0001)     ;
(PID.TID 0000.0001) PTRACERS_EvPrRn =/* tracer conc. in Evap. & Rain */
(PID.TID 0000.0001)                 1.234567000000000E+05
(PID.TID 0000.0001)     ;
(PID.TID 0000.0001)  -----------------------------------
(PID.TID 0000.0001)  tracer number :   42
(PID.TID 0000.0001) PTRACERS_ioLabel = /* tracer IO Label */
(PID.TID 0000.0001)               '42'
(PID.TID 0000.0001)     ;
(PID.TID 0000.0001) PTRACERS_advScheme = /* Advection Scheme */
(PID.TID 0000.0001)                      33
(PID.TID 0000.0001)     ;
(PID.TID 0000.0001) PTRACERS_ImplVertAdv = /* implicit vert. advection flag */
(PID.TID 0000.0001)                   F
(PID.TID 0000.0001)     ;
(PID.TID 0000.0001) PTRACERS_diffKh = /* Laplacian Diffusivity */
(PID.TID 0000.0001)                 0.000000000000000E+00
(PID.TID 0000.0001)     ;
(PID.TID 0000.0001) PTRACERS_diffK4 = /* Biharmonic Diffusivity */
(PID.TID 0000.0001)                 0.000000000000000E+00
(PID.TID 0000.0001)     ;
(PID.TID 0000.0001) PTRACERS_diffKrNr = /* Vertical Diffusivity */
(PID.TID 0000.0001)    35 @  1.000000000000000E-05              /* K =  1: 35 */
(PID.TID 0000.0001)     ;
(PID.TID 0000.0001) PTRACERS_useGMRedi = /* apply GM-Redi */
(PID.TID 0000.0001)                   F
(PID.TID 0000.0001)     ;
(PID.TID 0000.0001) PTRACERS_useKPP = /* apply KPP scheme */
(PID.TID 0000.0001)                   F
(PID.TID 0000.0001)     ;
(PID.TID 0000.0001) PTRACERS_ref = /* Reference vertical profile */
(PID.TID 0000.0001)    35 @  0.000000000000000E+00              /* K =  1: 35 */
(PID.TID 0000.0001)     ;
(PID.TID 0000.0001) PTRACERS_EvPrRn =/* tracer conc. in Evap. & Rain */
(PID.TID 0000.0001)                 1.234567000000000E+05
(PID.TID 0000.0001)     ;
(PID.TID 0000.0001)  -----------------------------------
(PID.TID 0000.0001)  tracer number :   43
(PID.TID 0000.0001) PTRACERS_ioLabel = /* tracer IO Label */
(PID.TID 0000.0001)               '43'
(PID.TID 0000.0001)     ;
(PID.TID 0000.0001) PTRACERS_advScheme = /* Advection Scheme */
(PID.TID 0000.0001)                      33
(PID.TID 0000.0001)     ;
(PID.TID 0000.0001) PTRACERS_ImplVertAdv = /* implicit vert. advection flag */
(PID.TID 0000.0001)                   F
(PID.TID 0000.0001)     ;
(PID.TID 0000.0001) PTRACERS_diffKh = /* Laplacian Diffusivity */
(PID.TID 0000.0001)                 0.000000000000000E+00
(PID.TID 0000.0001)     ;
(PID.TID 0000.0001) PTRACERS_diffK4 = /* Biharmonic Diffusivity */
(PID.TID 0000.0001)                 0.000000000000000E+00
(PID.TID 0000.0001)     ;
(PID.TID 0000.0001) PTRACERS_diffKrNr = /* Vertical Diffusivity */
(PID.TID 0000.0001)    35 @  1.000000000000000E-05              /* K =  1: 35 */
(PID.TID 0000.0001)     ;
(PID.TID 0000.0001) PTRACERS_useGMRedi = /* apply GM-Redi */
(PID.TID 0000.0001)                   F
(PID.TID 0000.0001)     ;
(PID.TID 0000.0001) PTRACERS_useKPP = /* apply KPP scheme */
(PID.TID 0000.0001)                   F
(PID.TID 0000.0001)     ;
(PID.TID 0000.0001) PTRACERS_ref = /* Reference vertical profile */
(PID.TID 0000.0001)    35 @  0.000000000000000E+00              /* K =  1: 35 */
(PID.TID 0000.0001)     ;
(PID.TID 0000.0001) PTRACERS_EvPrRn =/* tracer conc. in Evap. & Rain */
(PID.TID 0000.0001)                 1.234567000000000E+05
(PID.TID 0000.0001)     ;
(PID.TID 0000.0001)  -----------------------------------
(PID.TID 0000.0001)  tracer number :   44
(PID.TID 0000.0001) PTRACERS_ioLabel = /* tracer IO Label */
(PID.TID 0000.0001)               '44'
(PID.TID 0000.0001)     ;
(PID.TID 0000.0001) PTRACERS_advScheme = /* Advection Scheme */
(PID.TID 0000.0001)                      33
(PID.TID 0000.0001)     ;
(PID.TID 0000.0001) PTRACERS_ImplVertAdv = /* implicit vert. advection flag */
(PID.TID 0000.0001)                   F
(PID.TID 0000.0001)     ;
(PID.TID 0000.0001) PTRACERS_diffKh = /* Laplacian Diffusivity */
(PID.TID 0000.0001)                 0.000000000000000E+00
(PID.TID 0000.0001)     ;
(PID.TID 0000.0001) PTRACERS_diffK4 = /* Biharmonic Diffusivity */
(PID.TID 0000.0001)                 0.000000000000000E+00
(PID.TID 0000.0001)     ;
(PID.TID 0000.0001) PTRACERS_diffKrNr = /* Vertical Diffusivity */
(PID.TID 0000.0001)    35 @  1.000000000000000E-05              /* K =  1: 35 */
(PID.TID 0000.0001)     ;
(PID.TID 0000.0001) PTRACERS_useGMRedi = /* apply GM-Redi */
(PID.TID 0000.0001)                   F
(PID.TID 0000.0001)     ;
(PID.TID 0000.0001) PTRACERS_useKPP = /* apply KPP scheme */
(PID.TID 0000.0001)                   F
(PID.TID 0000.0001)     ;
(PID.TID 0000.0001) PTRACERS_ref = /* Reference vertical profile */
(PID.TID 0000.0001)    35 @  0.000000000000000E+00              /* K =  1: 35 */
(PID.TID 0000.0001)     ;
(PID.TID 0000.0001) PTRACERS_EvPrRn =/* tracer conc. in Evap. & Rain */
(PID.TID 0000.0001)                 1.234567000000000E+05
(PID.TID 0000.0001)     ;
(PID.TID 0000.0001)  -----------------------------------
(PID.TID 0000.0001)  tracer number :   45
(PID.TID 0000.0001) PTRACERS_ioLabel = /* tracer IO Label */
(PID.TID 0000.0001)               '45'
(PID.TID 0000.0001)     ;
(PID.TID 0000.0001) PTRACERS_advScheme = /* Advection Scheme */
(PID.TID 0000.0001)                      33
(PID.TID 0000.0001)     ;
(PID.TID 0000.0001) PTRACERS_ImplVertAdv = /* implicit vert. advection flag */
(PID.TID 0000.0001)                   F
(PID.TID 0000.0001)     ;
(PID.TID 0000.0001) PTRACERS_diffKh = /* Laplacian Diffusivity */
(PID.TID 0000.0001)                 0.000000000000000E+00
(PID.TID 0000.0001)     ;
(PID.TID 0000.0001) PTRACERS_diffK4 = /* Biharmonic Diffusivity */
(PID.TID 0000.0001)                 0.000000000000000E+00
(PID.TID 0000.0001)     ;
(PID.TID 0000.0001) PTRACERS_diffKrNr = /* Vertical Diffusivity */
(PID.TID 0000.0001)    35 @  1.000000000000000E-05              /* K =  1: 35 */
(PID.TID 0000.0001)     ;
(PID.TID 0000.0001) PTRACERS_useGMRedi = /* apply GM-Redi */
(PID.TID 0000.0001)                   F
(PID.TID 0000.0001)     ;
(PID.TID 0000.0001) PTRACERS_useKPP = /* apply KPP scheme */
(PID.TID 0000.0001)                   F
(PID.TID 0000.0001)     ;
(PID.TID 0000.0001) PTRACERS_ref = /* Reference vertical profile */
(PID.TID 0000.0001)    35 @  0.000000000000000E+00              /* K =  1: 35 */
(PID.TID 0000.0001)     ;
(PID.TID 0000.0001) PTRACERS_EvPrRn =/* tracer conc. in Evap. & Rain */
(PID.TID 0000.0001)                 1.234567000000000E+05
(PID.TID 0000.0001)     ;
(PID.TID 0000.0001)  -----------------------------------
(PID.TID 0000.0001)  tracer number :   46
(PID.TID 0000.0001) PTRACERS_ioLabel = /* tracer IO Label */
(PID.TID 0000.0001)               '46'
(PID.TID 0000.0001)     ;
(PID.TID 0000.0001) PTRACERS_advScheme = /* Advection Scheme */
(PID.TID 0000.0001)                      33
(PID.TID 0000.0001)     ;
(PID.TID 0000.0001) PTRACERS_ImplVertAdv = /* implicit vert. advection flag */
(PID.TID 0000.0001)                   F
(PID.TID 0000.0001)     ;
(PID.TID 0000.0001) PTRACERS_diffKh = /* Laplacian Diffusivity */
(PID.TID 0000.0001)                 0.000000000000000E+00
(PID.TID 0000.0001)     ;
(PID.TID 0000.0001) PTRACERS_diffK4 = /* Biharmonic Diffusivity */
(PID.TID 0000.0001)                 0.000000000000000E+00
(PID.TID 0000.0001)     ;
(PID.TID 0000.0001) PTRACERS_diffKrNr = /* Vertical Diffusivity */
(PID.TID 0000.0001)    35 @  1.000000000000000E-05              /* K =  1: 35 */
(PID.TID 0000.0001)     ;
(PID.TID 0000.0001) PTRACERS_useGMRedi = /* apply GM-Redi */
(PID.TID 0000.0001)                   F
(PID.TID 0000.0001)     ;
(PID.TID 0000.0001) PTRACERS_useKPP = /* apply KPP scheme */
(PID.TID 0000.0001)                   F
(PID.TID 0000.0001)     ;
(PID.TID 0000.0001) PTRACERS_ref = /* Reference vertical profile */
(PID.TID 0000.0001)    35 @  0.000000000000000E+00              /* K =  1: 35 */
(PID.TID 0000.0001)     ;
(PID.TID 0000.0001) PTRACERS_EvPrRn =/* tracer conc. in Evap. & Rain */
(PID.TID 0000.0001)                 1.234567000000000E+05
(PID.TID 0000.0001)     ;
(PID.TID 0000.0001)  -----------------------------------
(PID.TID 0000.0001)  tracer number :   47
(PID.TID 0000.0001) PTRACERS_ioLabel = /* tracer IO Label */
(PID.TID 0000.0001)               '47'
(PID.TID 0000.0001)     ;
(PID.TID 0000.0001) PTRACERS_advScheme = /* Advection Scheme */
(PID.TID 0000.0001)                      33
(PID.TID 0000.0001)     ;
(PID.TID 0000.0001) PTRACERS_ImplVertAdv = /* implicit vert. advection flag */
(PID.TID 0000.0001)                   F
(PID.TID 0000.0001)     ;
(PID.TID 0000.0001) PTRACERS_diffKh = /* Laplacian Diffusivity */
(PID.TID 0000.0001)                 0.000000000000000E+00
(PID.TID 0000.0001)     ;
(PID.TID 0000.0001) PTRACERS_diffK4 = /* Biharmonic Diffusivity */
(PID.TID 0000.0001)                 0.000000000000000E+00
(PID.TID 0000.0001)     ;
(PID.TID 0000.0001) PTRACERS_diffKrNr = /* Vertical Diffusivity */
(PID.TID 0000.0001)    35 @  1.000000000000000E-05              /* K =  1: 35 */
(PID.TID 0000.0001)     ;
(PID.TID 0000.0001) PTRACERS_useGMRedi = /* apply GM-Redi */
(PID.TID 0000.0001)                   F
(PID.TID 0000.0001)     ;
(PID.TID 0000.0001) PTRACERS_useKPP = /* apply KPP scheme */
(PID.TID 0000.0001)                   F
(PID.TID 0000.0001)     ;
(PID.TID 0000.0001) PTRACERS_ref = /* Reference vertical profile */
(PID.TID 0000.0001)    35 @  0.000000000000000E+00              /* K =  1: 35 */
(PID.TID 0000.0001)     ;
(PID.TID 0000.0001) PTRACERS_EvPrRn =/* tracer conc. in Evap. & Rain */
(PID.TID 0000.0001)                 1.234567000000000E+05
(PID.TID 0000.0001)     ;
(PID.TID 0000.0001)  -----------------------------------
(PID.TID 0000.0001)  tracer number :   48
(PID.TID 0000.0001) PTRACERS_ioLabel = /* tracer IO Label */
(PID.TID 0000.0001)               '48'
(PID.TID 0000.0001)     ;
(PID.TID 0000.0001) PTRACERS_advScheme = /* Advection Scheme */
(PID.TID 0000.0001)                      33
(PID.TID 0000.0001)     ;
(PID.TID 0000.0001) PTRACERS_ImplVertAdv = /* implicit vert. advection flag */
(PID.TID 0000.0001)                   F
(PID.TID 0000.0001)     ;
(PID.TID 0000.0001) PTRACERS_diffKh = /* Laplacian Diffusivity */
(PID.TID 0000.0001)                 0.000000000000000E+00
(PID.TID 0000.0001)     ;
(PID.TID 0000.0001) PTRACERS_diffK4 = /* Biharmonic Diffusivity */
(PID.TID 0000.0001)                 0.000000000000000E+00
(PID.TID 0000.0001)     ;
(PID.TID 0000.0001) PTRACERS_diffKrNr = /* Vertical Diffusivity */
(PID.TID 0000.0001)    35 @  1.000000000000000E-05              /* K =  1: 35 */
(PID.TID 0000.0001)     ;
(PID.TID 0000.0001) PTRACERS_useGMRedi = /* apply GM-Redi */
(PID.TID 0000.0001)                   F
(PID.TID 0000.0001)     ;
(PID.TID 0000.0001) PTRACERS_useKPP = /* apply KPP scheme */
(PID.TID 0000.0001)                   F
(PID.TID 0000.0001)     ;
(PID.TID 0000.0001) PTRACERS_ref = /* Reference vertical profile */
(PID.TID 0000.0001)    35 @  0.000000000000000E+00              /* K =  1: 35 */
(PID.TID 0000.0001)     ;
(PID.TID 0000.0001) PTRACERS_EvPrRn =/* tracer conc. in Evap. & Rain */
(PID.TID 0000.0001)                 1.234567000000000E+05
(PID.TID 0000.0001)     ;
(PID.TID 0000.0001)  -----------------------------------
(PID.TID 0000.0001)  tracer number :   49
(PID.TID 0000.0001) PTRACERS_ioLabel = /* tracer IO Label */
(PID.TID 0000.0001)               '49'
(PID.TID 0000.0001)     ;
(PID.TID 0000.0001) PTRACERS_advScheme = /* Advection Scheme */
(PID.TID 0000.0001)                      33
(PID.TID 0000.0001)     ;
(PID.TID 0000.0001) PTRACERS_ImplVertAdv = /* implicit vert. advection flag */
(PID.TID 0000.0001)                   F
(PID.TID 0000.0001)     ;
(PID.TID 0000.0001) PTRACERS_diffKh = /* Laplacian Diffusivity */
(PID.TID 0000.0001)                 0.000000000000000E+00
(PID.TID 0000.0001)     ;
(PID.TID 0000.0001) PTRACERS_diffK4 = /* Biharmonic Diffusivity */
(PID.TID 0000.0001)                 0.000000000000000E+00
(PID.TID 0000.0001)     ;
(PID.TID 0000.0001) PTRACERS_diffKrNr = /* Vertical Diffusivity */
(PID.TID 0000.0001)    35 @  1.000000000000000E-05              /* K =  1: 35 */
(PID.TID 0000.0001)     ;
(PID.TID 0000.0001) PTRACERS_useGMRedi = /* apply GM-Redi */
(PID.TID 0000.0001)                   F
(PID.TID 0000.0001)     ;
(PID.TID 0000.0001) PTRACERS_useKPP = /* apply KPP scheme */
(PID.TID 0000.0001)                   F
(PID.TID 0000.0001)     ;
(PID.TID 0000.0001) PTRACERS_ref = /* Reference vertical profile */
(PID.TID 0000.0001)    35 @  0.000000000000000E+00              /* K =  1: 35 */
(PID.TID 0000.0001)     ;
(PID.TID 0000.0001) PTRACERS_EvPrRn =/* tracer conc. in Evap. & Rain */
(PID.TID 0000.0001)                 1.234567000000000E+05
(PID.TID 0000.0001)     ;
(PID.TID 0000.0001)  -----------------------------------
(PID.TID 0000.0001)  tracer number :   50
(PID.TID 0000.0001) PTRACERS_ioLabel = /* tracer IO Label */
(PID.TID 0000.0001)               '50'
(PID.TID 0000.0001)     ;
(PID.TID 0000.0001) PTRACERS_advScheme = /* Advection Scheme */
(PID.TID 0000.0001)                      33
(PID.TID 0000.0001)     ;
(PID.TID 0000.0001) PTRACERS_ImplVertAdv = /* implicit vert. advection flag */
(PID.TID 0000.0001)                   F
(PID.TID 0000.0001)     ;
(PID.TID 0000.0001) PTRACERS_diffKh = /* Laplacian Diffusivity */
(PID.TID 0000.0001)                 0.000000000000000E+00
(PID.TID 0000.0001)     ;
(PID.TID 0000.0001) PTRACERS_diffK4 = /* Biharmonic Diffusivity */
(PID.TID 0000.0001)                 0.000000000000000E+00
(PID.TID 0000.0001)     ;
(PID.TID 0000.0001) PTRACERS_diffKrNr = /* Vertical Diffusivity */
(PID.TID 0000.0001)    35 @  1.000000000000000E-05              /* K =  1: 35 */
(PID.TID 0000.0001)     ;
(PID.TID 0000.0001) PTRACERS_useGMRedi = /* apply GM-Redi */
(PID.TID 0000.0001)                   F
(PID.TID 0000.0001)     ;
(PID.TID 0000.0001) PTRACERS_useKPP = /* apply KPP scheme */
(PID.TID 0000.0001)                   F
(PID.TID 0000.0001)     ;
(PID.TID 0000.0001) PTRACERS_ref = /* Reference vertical profile */
(PID.TID 0000.0001)    35 @  0.000000000000000E+00              /* K =  1: 35 */
(PID.TID 0000.0001)     ;
(PID.TID 0000.0001) PTRACERS_EvPrRn =/* tracer conc. in Evap. & Rain */
(PID.TID 0000.0001)                 1.234567000000000E+05
(PID.TID 0000.0001)     ;
(PID.TID 0000.0001)  -----------------------------------
(PID.TID 0000.0001)  tracer number :   51
(PID.TID 0000.0001) PTRACERS_ioLabel = /* tracer IO Label */
(PID.TID 0000.0001)               '51'
(PID.TID 0000.0001)     ;
(PID.TID 0000.0001) PTRACERS_advScheme = /* Advection Scheme */
(PID.TID 0000.0001)                      33
(PID.TID 0000.0001)     ;
(PID.TID 0000.0001) PTRACERS_ImplVertAdv = /* implicit vert. advection flag */
(PID.TID 0000.0001)                   F
(PID.TID 0000.0001)     ;
(PID.TID 0000.0001) PTRACERS_diffKh = /* Laplacian Diffusivity */
(PID.TID 0000.0001)                 0.000000000000000E+00
(PID.TID 0000.0001)     ;
(PID.TID 0000.0001) PTRACERS_diffK4 = /* Biharmonic Diffusivity */
(PID.TID 0000.0001)                 0.000000000000000E+00
(PID.TID 0000.0001)     ;
(PID.TID 0000.0001) PTRACERS_diffKrNr = /* Vertical Diffusivity */
(PID.TID 0000.0001)    35 @  1.000000000000000E-05              /* K =  1: 35 */
(PID.TID 0000.0001)     ;
(PID.TID 0000.0001) PTRACERS_useGMRedi = /* apply GM-Redi */
(PID.TID 0000.0001)                   F
(PID.TID 0000.0001)     ;
(PID.TID 0000.0001) PTRACERS_useKPP = /* apply KPP scheme */
(PID.TID 0000.0001)                   F
(PID.TID 0000.0001)     ;
(PID.TID 0000.0001) PTRACERS_ref = /* Reference vertical profile */
(PID.TID 0000.0001)    35 @  0.000000000000000E+00              /* K =  1: 35 */
(PID.TID 0000.0001)     ;
(PID.TID 0000.0001) PTRACERS_EvPrRn =/* tracer conc. in Evap. & Rain */
(PID.TID 0000.0001)                 1.234567000000000E+05
(PID.TID 0000.0001)     ;
(PID.TID 0000.0001)  -----------------------------------
(PID.TID 0000.0001)  tracer number :   52
(PID.TID 0000.0001) PTRACERS_ioLabel = /* tracer IO Label */
(PID.TID 0000.0001)               '52'
(PID.TID 0000.0001)     ;
(PID.TID 0000.0001) PTRACERS_advScheme = /* Advection Scheme */
(PID.TID 0000.0001)                      33
(PID.TID 0000.0001)     ;
(PID.TID 0000.0001) PTRACERS_ImplVertAdv = /* implicit vert. advection flag */
(PID.TID 0000.0001)                   F
(PID.TID 0000.0001)     ;
(PID.TID 0000.0001) PTRACERS_diffKh = /* Laplacian Diffusivity */
(PID.TID 0000.0001)                 0.000000000000000E+00
(PID.TID 0000.0001)     ;
(PID.TID 0000.0001) PTRACERS_diffK4 = /* Biharmonic Diffusivity */
(PID.TID 0000.0001)                 0.000000000000000E+00
(PID.TID 0000.0001)     ;
(PID.TID 0000.0001) PTRACERS_diffKrNr = /* Vertical Diffusivity */
(PID.TID 0000.0001)    35 @  1.000000000000000E-05              /* K =  1: 35 */
(PID.TID 0000.0001)     ;
(PID.TID 0000.0001) PTRACERS_useGMRedi = /* apply GM-Redi */
(PID.TID 0000.0001)                   F
(PID.TID 0000.0001)     ;
(PID.TID 0000.0001) PTRACERS_useKPP = /* apply KPP scheme */
(PID.TID 0000.0001)                   F
(PID.TID 0000.0001)     ;
(PID.TID 0000.0001) PTRACERS_ref = /* Reference vertical profile */
(PID.TID 0000.0001)    35 @  0.000000000000000E+00              /* K =  1: 35 */
(PID.TID 0000.0001)     ;
(PID.TID 0000.0001) PTRACERS_EvPrRn =/* tracer conc. in Evap. & Rain */
(PID.TID 0000.0001)                 1.234567000000000E+05
(PID.TID 0000.0001)     ;
(PID.TID 0000.0001)  -----------------------------------
(PID.TID 0000.0001)  tracer number :   53
(PID.TID 0000.0001) PTRACERS_ioLabel = /* tracer IO Label */
(PID.TID 0000.0001)               '53'
(PID.TID 0000.0001)     ;
(PID.TID 0000.0001) PTRACERS_advScheme = /* Advection Scheme */
(PID.TID 0000.0001)                      33
(PID.TID 0000.0001)     ;
(PID.TID 0000.0001) PTRACERS_ImplVertAdv = /* implicit vert. advection flag */
(PID.TID 0000.0001)                   F
(PID.TID 0000.0001)     ;
(PID.TID 0000.0001) PTRACERS_diffKh = /* Laplacian Diffusivity */
(PID.TID 0000.0001)                 0.000000000000000E+00
(PID.TID 0000.0001)     ;
(PID.TID 0000.0001) PTRACERS_diffK4 = /* Biharmonic Diffusivity */
(PID.TID 0000.0001)                 0.000000000000000E+00
(PID.TID 0000.0001)     ;
(PID.TID 0000.0001) PTRACERS_diffKrNr = /* Vertical Diffusivity */
(PID.TID 0000.0001)    35 @  1.000000000000000E-05              /* K =  1: 35 */
(PID.TID 0000.0001)     ;
(PID.TID 0000.0001) PTRACERS_useGMRedi = /* apply GM-Redi */
(PID.TID 0000.0001)                   F
(PID.TID 0000.0001)     ;
(PID.TID 0000.0001) PTRACERS_useKPP = /* apply KPP scheme */
(PID.TID 0000.0001)                   F
(PID.TID 0000.0001)     ;
(PID.TID 0000.0001) PTRACERS_ref = /* Reference vertical profile */
(PID.TID 0000.0001)    35 @  0.000000000000000E+00              /* K =  1: 35 */
(PID.TID 0000.0001)     ;
(PID.TID 0000.0001) PTRACERS_EvPrRn =/* tracer conc. in Evap. & Rain */
(PID.TID 0000.0001)                 1.234567000000000E+05
(PID.TID 0000.0001)     ;
(PID.TID 0000.0001)  -----------------------------------
(PID.TID 0000.0001)  tracer number :   54
(PID.TID 0000.0001) PTRACERS_ioLabel = /* tracer IO Label */
(PID.TID 0000.0001)               '54'
(PID.TID 0000.0001)     ;
(PID.TID 0000.0001) PTRACERS_advScheme = /* Advection Scheme */
(PID.TID 0000.0001)                      33
(PID.TID 0000.0001)     ;
(PID.TID 0000.0001) PTRACERS_ImplVertAdv = /* implicit vert. advection flag */
(PID.TID 0000.0001)                   F
(PID.TID 0000.0001)     ;
(PID.TID 0000.0001) PTRACERS_diffKh = /* Laplacian Diffusivity */
(PID.TID 0000.0001)                 0.000000000000000E+00
(PID.TID 0000.0001)     ;
(PID.TID 0000.0001) PTRACERS_diffK4 = /* Biharmonic Diffusivity */
(PID.TID 0000.0001)                 0.000000000000000E+00
(PID.TID 0000.0001)     ;
(PID.TID 0000.0001) PTRACERS_diffKrNr = /* Vertical Diffusivity */
(PID.TID 0000.0001)    35 @  1.000000000000000E-05              /* K =  1: 35 */
(PID.TID 0000.0001)     ;
(PID.TID 0000.0001) PTRACERS_useGMRedi = /* apply GM-Redi */
(PID.TID 0000.0001)                   F
(PID.TID 0000.0001)     ;
(PID.TID 0000.0001) PTRACERS_useKPP = /* apply KPP scheme */
(PID.TID 0000.0001)                   F
(PID.TID 0000.0001)     ;
(PID.TID 0000.0001) PTRACERS_ref = /* Reference vertical profile */
(PID.TID 0000.0001)    35 @  0.000000000000000E+00              /* K =  1: 35 */
(PID.TID 0000.0001)     ;
(PID.TID 0000.0001) PTRACERS_EvPrRn =/* tracer conc. in Evap. & Rain */
(PID.TID 0000.0001)                 1.234567000000000E+05
(PID.TID 0000.0001)     ;
(PID.TID 0000.0001)  -----------------------------------
(PID.TID 0000.0001)  tracer number :   55
(PID.TID 0000.0001) PTRACERS_ioLabel = /* tracer IO Label */
(PID.TID 0000.0001)               '55'
(PID.TID 0000.0001)     ;
(PID.TID 0000.0001) PTRACERS_advScheme = /* Advection Scheme */
(PID.TID 0000.0001)                      33
(PID.TID 0000.0001)     ;
(PID.TID 0000.0001) PTRACERS_ImplVertAdv = /* implicit vert. advection flag */
(PID.TID 0000.0001)                   F
(PID.TID 0000.0001)     ;
(PID.TID 0000.0001) PTRACERS_diffKh = /* Laplacian Diffusivity */
(PID.TID 0000.0001)                 0.000000000000000E+00
(PID.TID 0000.0001)     ;
(PID.TID 0000.0001) PTRACERS_diffK4 = /* Biharmonic Diffusivity */
(PID.TID 0000.0001)                 0.000000000000000E+00
(PID.TID 0000.0001)     ;
(PID.TID 0000.0001) PTRACERS_diffKrNr = /* Vertical Diffusivity */
(PID.TID 0000.0001)    35 @  1.000000000000000E-05              /* K =  1: 35 */
(PID.TID 0000.0001)     ;
(PID.TID 0000.0001) PTRACERS_useGMRedi = /* apply GM-Redi */
(PID.TID 0000.0001)                   F
(PID.TID 0000.0001)     ;
(PID.TID 0000.0001) PTRACERS_useKPP = /* apply KPP scheme */
(PID.TID 0000.0001)                   F
(PID.TID 0000.0001)     ;
(PID.TID 0000.0001) PTRACERS_ref = /* Reference vertical profile */
(PID.TID 0000.0001)    35 @  0.000000000000000E+00              /* K =  1: 35 */
(PID.TID 0000.0001)     ;
(PID.TID 0000.0001) PTRACERS_EvPrRn =/* tracer conc. in Evap. & Rain */
(PID.TID 0000.0001)                 1.234567000000000E+05
(PID.TID 0000.0001)     ;
(PID.TID 0000.0001)  -----------------------------------
(PID.TID 0000.0001)  tracer number :   56
(PID.TID 0000.0001) PTRACERS_ioLabel = /* tracer IO Label */
(PID.TID 0000.0001)               '56'
(PID.TID 0000.0001)     ;
(PID.TID 0000.0001) PTRACERS_advScheme = /* Advection Scheme */
(PID.TID 0000.0001)                      33
(PID.TID 0000.0001)     ;
(PID.TID 0000.0001) PTRACERS_ImplVertAdv = /* implicit vert. advection flag */
(PID.TID 0000.0001)                   F
(PID.TID 0000.0001)     ;
(PID.TID 0000.0001) PTRACERS_diffKh = /* Laplacian Diffusivity */
(PID.TID 0000.0001)                 0.000000000000000E+00
(PID.TID 0000.0001)     ;
(PID.TID 0000.0001) PTRACERS_diffK4 = /* Biharmonic Diffusivity */
(PID.TID 0000.0001)                 0.000000000000000E+00
(PID.TID 0000.0001)     ;
(PID.TID 0000.0001) PTRACERS_diffKrNr = /* Vertical Diffusivity */
(PID.TID 0000.0001)    35 @  1.000000000000000E-05              /* K =  1: 35 */
(PID.TID 0000.0001)     ;
(PID.TID 0000.0001) PTRACERS_useGMRedi = /* apply GM-Redi */
(PID.TID 0000.0001)                   F
(PID.TID 0000.0001)     ;
(PID.TID 0000.0001) PTRACERS_useKPP = /* apply KPP scheme */
(PID.TID 0000.0001)                   F
(PID.TID 0000.0001)     ;
(PID.TID 0000.0001) PTRACERS_ref = /* Reference vertical profile */
(PID.TID 0000.0001)    35 @  0.000000000000000E+00              /* K =  1: 35 */
(PID.TID 0000.0001)     ;
(PID.TID 0000.0001) PTRACERS_EvPrRn =/* tracer conc. in Evap. & Rain */
(PID.TID 0000.0001)                 1.234567000000000E+05
(PID.TID 0000.0001)     ;
(PID.TID 0000.0001)  -----------------------------------
(PID.TID 0000.0001)  tracer number :   57
(PID.TID 0000.0001) PTRACERS_ioLabel = /* tracer IO Label */
(PID.TID 0000.0001)               '57'
(PID.TID 0000.0001)     ;
(PID.TID 0000.0001) PTRACERS_advScheme = /* Advection Scheme */
(PID.TID 0000.0001)                      33
(PID.TID 0000.0001)     ;
(PID.TID 0000.0001) PTRACERS_ImplVertAdv = /* implicit vert. advection flag */
(PID.TID 0000.0001)                   F
(PID.TID 0000.0001)     ;
(PID.TID 0000.0001) PTRACERS_diffKh = /* Laplacian Diffusivity */
(PID.TID 0000.0001)                 0.000000000000000E+00
(PID.TID 0000.0001)     ;
(PID.TID 0000.0001) PTRACERS_diffK4 = /* Biharmonic Diffusivity */
(PID.TID 0000.0001)                 0.000000000000000E+00
(PID.TID 0000.0001)     ;
(PID.TID 0000.0001) PTRACERS_diffKrNr = /* Vertical Diffusivity */
(PID.TID 0000.0001)    35 @  1.000000000000000E-05              /* K =  1: 35 */
(PID.TID 0000.0001)     ;
(PID.TID 0000.0001) PTRACERS_useGMRedi = /* apply GM-Redi */
(PID.TID 0000.0001)                   F
(PID.TID 0000.0001)     ;
(PID.TID 0000.0001) PTRACERS_useKPP = /* apply KPP scheme */
(PID.TID 0000.0001)                   F
(PID.TID 0000.0001)     ;
(PID.TID 0000.0001) PTRACERS_ref = /* Reference vertical profile */
(PID.TID 0000.0001)    35 @  0.000000000000000E+00              /* K =  1: 35 */
(PID.TID 0000.0001)     ;
(PID.TID 0000.0001) PTRACERS_EvPrRn =/* tracer conc. in Evap. & Rain */
(PID.TID 0000.0001)                 1.234567000000000E+05
(PID.TID 0000.0001)     ;
(PID.TID 0000.0001)  -----------------------------------
(PID.TID 0000.0001)  tracer number :   58
(PID.TID 0000.0001) PTRACERS_ioLabel = /* tracer IO Label */
(PID.TID 0000.0001)               '58'
(PID.TID 0000.0001)     ;
(PID.TID 0000.0001) PTRACERS_advScheme = /* Advection Scheme */
(PID.TID 0000.0001)                      33
(PID.TID 0000.0001)     ;
(PID.TID 0000.0001) PTRACERS_ImplVertAdv = /* implicit vert. advection flag */
(PID.TID 0000.0001)                   F
(PID.TID 0000.0001)     ;
(PID.TID 0000.0001) PTRACERS_diffKh = /* Laplacian Diffusivity */
(PID.TID 0000.0001)                 0.000000000000000E+00
(PID.TID 0000.0001)     ;
(PID.TID 0000.0001) PTRACERS_diffK4 = /* Biharmonic Diffusivity */
(PID.TID 0000.0001)                 0.000000000000000E+00
(PID.TID 0000.0001)     ;
(PID.TID 0000.0001) PTRACERS_diffKrNr = /* Vertical Diffusivity */
(PID.TID 0000.0001)    35 @  1.000000000000000E-05              /* K =  1: 35 */
(PID.TID 0000.0001)     ;
(PID.TID 0000.0001) PTRACERS_useGMRedi = /* apply GM-Redi */
(PID.TID 0000.0001)                   F
(PID.TID 0000.0001)     ;
(PID.TID 0000.0001) PTRACERS_useKPP = /* apply KPP scheme */
(PID.TID 0000.0001)                   F
(PID.TID 0000.0001)     ;
(PID.TID 0000.0001) PTRACERS_ref = /* Reference vertical profile */
(PID.TID 0000.0001)    35 @  0.000000000000000E+00              /* K =  1: 35 */
(PID.TID 0000.0001)     ;
(PID.TID 0000.0001) PTRACERS_EvPrRn =/* tracer conc. in Evap. & Rain */
(PID.TID 0000.0001)                 1.234567000000000E+05
(PID.TID 0000.0001)     ;
(PID.TID 0000.0001)  -----------------------------------
(PID.TID 0000.0001)  tracer number :   59
(PID.TID 0000.0001) PTRACERS_ioLabel = /* tracer IO Label */
(PID.TID 0000.0001)               '59'
(PID.TID 0000.0001)     ;
(PID.TID 0000.0001) PTRACERS_advScheme = /* Advection Scheme */
(PID.TID 0000.0001)                      33
(PID.TID 0000.0001)     ;
(PID.TID 0000.0001) PTRACERS_ImplVertAdv = /* implicit vert. advection flag */
(PID.TID 0000.0001)                   F
(PID.TID 0000.0001)     ;
(PID.TID 0000.0001) PTRACERS_diffKh = /* Laplacian Diffusivity */
(PID.TID 0000.0001)                 0.000000000000000E+00
(PID.TID 0000.0001)     ;
(PID.TID 0000.0001) PTRACERS_diffK4 = /* Biharmonic Diffusivity */
(PID.TID 0000.0001)                 0.000000000000000E+00
(PID.TID 0000.0001)     ;
(PID.TID 0000.0001) PTRACERS_diffKrNr = /* Vertical Diffusivity */
(PID.TID 0000.0001)    35 @  1.000000000000000E-05              /* K =  1: 35 */
(PID.TID 0000.0001)     ;
(PID.TID 0000.0001) PTRACERS_useGMRedi = /* apply GM-Redi */
(PID.TID 0000.0001)                   F
(PID.TID 0000.0001)     ;
(PID.TID 0000.0001) PTRACERS_useKPP = /* apply KPP scheme */
(PID.TID 0000.0001)                   F
(PID.TID 0000.0001)     ;
(PID.TID 0000.0001) PTRACERS_ref = /* Reference vertical profile */
(PID.TID 0000.0001)    35 @  0.000000000000000E+00              /* K =  1: 35 */
(PID.TID 0000.0001)     ;
(PID.TID 0000.0001) PTRACERS_EvPrRn =/* tracer conc. in Evap. & Rain */
(PID.TID 0000.0001)                 1.234567000000000E+05
(PID.TID 0000.0001)     ;
(PID.TID 0000.0001)  -----------------------------------
(PID.TID 0000.0001)  tracer number :   60
(PID.TID 0000.0001) PTRACERS_ioLabel = /* tracer IO Label */
(PID.TID 0000.0001)               '60'
(PID.TID 0000.0001)     ;
(PID.TID 0000.0001) PTRACERS_advScheme = /* Advection Scheme */
(PID.TID 0000.0001)                      33
(PID.TID 0000.0001)     ;
(PID.TID 0000.0001) PTRACERS_ImplVertAdv = /* implicit vert. advection flag */
(PID.TID 0000.0001)                   F
(PID.TID 0000.0001)     ;
(PID.TID 0000.0001) PTRACERS_diffKh = /* Laplacian Diffusivity */
(PID.TID 0000.0001)                 0.000000000000000E+00
(PID.TID 0000.0001)     ;
(PID.TID 0000.0001) PTRACERS_diffK4 = /* Biharmonic Diffusivity */
(PID.TID 0000.0001)                 0.000000000000000E+00
(PID.TID 0000.0001)     ;
(PID.TID 0000.0001) PTRACERS_diffKrNr = /* Vertical Diffusivity */
(PID.TID 0000.0001)    35 @  1.000000000000000E-05              /* K =  1: 35 */
(PID.TID 0000.0001)     ;
(PID.TID 0000.0001) PTRACERS_useGMRedi = /* apply GM-Redi */
(PID.TID 0000.0001)                   F
(PID.TID 0000.0001)     ;
(PID.TID 0000.0001) PTRACERS_useKPP = /* apply KPP scheme */
(PID.TID 0000.0001)                   F
(PID.TID 0000.0001)     ;
(PID.TID 0000.0001) PTRACERS_ref = /* Reference vertical profile */
(PID.TID 0000.0001)    35 @  0.000000000000000E+00              /* K =  1: 35 */
(PID.TID 0000.0001)     ;
(PID.TID 0000.0001) PTRACERS_EvPrRn =/* tracer conc. in Evap. & Rain */
(PID.TID 0000.0001)                 1.234567000000000E+05
(PID.TID 0000.0001)     ;
(PID.TID 0000.0001)  -----------------------------------
(PID.TID 0000.0001)  tracer number :   61
(PID.TID 0000.0001) PTRACERS_ioLabel = /* tracer IO Label */
(PID.TID 0000.0001)               '61'
(PID.TID 0000.0001)     ;
(PID.TID 0000.0001) PTRACERS_advScheme = /* Advection Scheme */
(PID.TID 0000.0001)                      33
(PID.TID 0000.0001)     ;
(PID.TID 0000.0001) PTRACERS_ImplVertAdv = /* implicit vert. advection flag */
(PID.TID 0000.0001)                   F
(PID.TID 0000.0001)     ;
(PID.TID 0000.0001) PTRACERS_diffKh = /* Laplacian Diffusivity */
(PID.TID 0000.0001)                 0.000000000000000E+00
(PID.TID 0000.0001)     ;
(PID.TID 0000.0001) PTRACERS_diffK4 = /* Biharmonic Diffusivity */
(PID.TID 0000.0001)                 0.000000000000000E+00
(PID.TID 0000.0001)     ;
(PID.TID 0000.0001) PTRACERS_diffKrNr = /* Vertical Diffusivity */
(PID.TID 0000.0001)    35 @  1.000000000000000E-05              /* K =  1: 35 */
(PID.TID 0000.0001)     ;
(PID.TID 0000.0001) PTRACERS_useGMRedi = /* apply GM-Redi */
(PID.TID 0000.0001)                   F
(PID.TID 0000.0001)     ;
(PID.TID 0000.0001) PTRACERS_useKPP = /* apply KPP scheme */
(PID.TID 0000.0001)                   F
(PID.TID 0000.0001)     ;
(PID.TID 0000.0001) PTRACERS_ref = /* Reference vertical profile */
(PID.TID 0000.0001)    35 @  0.000000000000000E+00              /* K =  1: 35 */
(PID.TID 0000.0001)     ;
(PID.TID 0000.0001) PTRACERS_EvPrRn =/* tracer conc. in Evap. & Rain */
(PID.TID 0000.0001)                 1.234567000000000E+05
(PID.TID 0000.0001)     ;
(PID.TID 0000.0001)  -----------------------------------
(PID.TID 0000.0001)  tracer number :   62
(PID.TID 0000.0001) PTRACERS_ioLabel = /* tracer IO Label */
(PID.TID 0000.0001)               '62'
(PID.TID 0000.0001)     ;
(PID.TID 0000.0001) PTRACERS_advScheme = /* Advection Scheme */
(PID.TID 0000.0001)                      33
(PID.TID 0000.0001)     ;
(PID.TID 0000.0001) PTRACERS_ImplVertAdv = /* implicit vert. advection flag */
(PID.TID 0000.0001)                   F
(PID.TID 0000.0001)     ;
(PID.TID 0000.0001) PTRACERS_diffKh = /* Laplacian Diffusivity */
(PID.TID 0000.0001)                 0.000000000000000E+00
(PID.TID 0000.0001)     ;
(PID.TID 0000.0001) PTRACERS_diffK4 = /* Biharmonic Diffusivity */
(PID.TID 0000.0001)                 0.000000000000000E+00
(PID.TID 0000.0001)     ;
(PID.TID 0000.0001) PTRACERS_diffKrNr = /* Vertical Diffusivity */
(PID.TID 0000.0001)    35 @  1.000000000000000E-05              /* K =  1: 35 */
(PID.TID 0000.0001)     ;
(PID.TID 0000.0001) PTRACERS_useGMRedi = /* apply GM-Redi */
(PID.TID 0000.0001)                   F
(PID.TID 0000.0001)     ;
(PID.TID 0000.0001) PTRACERS_useKPP = /* apply KPP scheme */
(PID.TID 0000.0001)                   F
(PID.TID 0000.0001)     ;
(PID.TID 0000.0001) PTRACERS_ref = /* Reference vertical profile */
(PID.TID 0000.0001)    35 @  0.000000000000000E+00              /* K =  1: 35 */
(PID.TID 0000.0001)     ;
(PID.TID 0000.0001) PTRACERS_EvPrRn =/* tracer conc. in Evap. & Rain */
(PID.TID 0000.0001)                 1.234567000000000E+05
(PID.TID 0000.0001)     ;
(PID.TID 0000.0001)  -----------------------------------
(PID.TID 0000.0001)  tracer number :   63
(PID.TID 0000.0001) PTRACERS_ioLabel = /* tracer IO Label */
(PID.TID 0000.0001)               '63'
(PID.TID 0000.0001)     ;
(PID.TID 0000.0001) PTRACERS_advScheme = /* Advection Scheme */
(PID.TID 0000.0001)                      33
(PID.TID 0000.0001)     ;
(PID.TID 0000.0001) PTRACERS_ImplVertAdv = /* implicit vert. advection flag */
(PID.TID 0000.0001)                   F
(PID.TID 0000.0001)     ;
(PID.TID 0000.0001) PTRACERS_diffKh = /* Laplacian Diffusivity */
(PID.TID 0000.0001)                 0.000000000000000E+00
(PID.TID 0000.0001)     ;
(PID.TID 0000.0001) PTRACERS_diffK4 = /* Biharmonic Diffusivity */
(PID.TID 0000.0001)                 0.000000000000000E+00
(PID.TID 0000.0001)     ;
(PID.TID 0000.0001) PTRACERS_diffKrNr = /* Vertical Diffusivity */
(PID.TID 0000.0001)    35 @  1.000000000000000E-05              /* K =  1: 35 */
(PID.TID 0000.0001)     ;
(PID.TID 0000.0001) PTRACERS_useGMRedi = /* apply GM-Redi */
(PID.TID 0000.0001)                   F
(PID.TID 0000.0001)     ;
(PID.TID 0000.0001) PTRACERS_useKPP = /* apply KPP scheme */
(PID.TID 0000.0001)                   F
(PID.TID 0000.0001)     ;
(PID.TID 0000.0001) PTRACERS_ref = /* Reference vertical profile */
(PID.TID 0000.0001)    35 @  0.000000000000000E+00              /* K =  1: 35 */
(PID.TID 0000.0001)     ;
(PID.TID 0000.0001) PTRACERS_EvPrRn =/* tracer conc. in Evap. & Rain */
(PID.TID 0000.0001)                 1.234567000000000E+05
(PID.TID 0000.0001)     ;
(PID.TID 0000.0001)  -----------------------------------
(PID.TID 0000.0001)  tracer number :   64
(PID.TID 0000.0001) PTRACERS_ioLabel = /* tracer IO Label */
(PID.TID 0000.0001)               '64'
(PID.TID 0000.0001)     ;
(PID.TID 0000.0001) PTRACERS_advScheme = /* Advection Scheme */
(PID.TID 0000.0001)                      33
(PID.TID 0000.0001)     ;
(PID.TID 0000.0001) PTRACERS_ImplVertAdv = /* implicit vert. advection flag */
(PID.TID 0000.0001)                   F
(PID.TID 0000.0001)     ;
(PID.TID 0000.0001) PTRACERS_diffKh = /* Laplacian Diffusivity */
(PID.TID 0000.0001)                 0.000000000000000E+00
(PID.TID 0000.0001)     ;
(PID.TID 0000.0001) PTRACERS_diffK4 = /* Biharmonic Diffusivity */
(PID.TID 0000.0001)                 0.000000000000000E+00
(PID.TID 0000.0001)     ;
(PID.TID 0000.0001) PTRACERS_diffKrNr = /* Vertical Diffusivity */
(PID.TID 0000.0001)    35 @  1.000000000000000E-05              /* K =  1: 35 */
(PID.TID 0000.0001)     ;
(PID.TID 0000.0001) PTRACERS_useGMRedi = /* apply GM-Redi */
(PID.TID 0000.0001)                   F
(PID.TID 0000.0001)     ;
(PID.TID 0000.0001) PTRACERS_useKPP = /* apply KPP scheme */
(PID.TID 0000.0001)                   F
(PID.TID 0000.0001)     ;
(PID.TID 0000.0001) PTRACERS_ref = /* Reference vertical profile */
(PID.TID 0000.0001)    35 @  0.000000000000000E+00              /* K =  1: 35 */
(PID.TID 0000.0001)     ;
(PID.TID 0000.0001) PTRACERS_EvPrRn =/* tracer conc. in Evap. & Rain */
(PID.TID 0000.0001)                 1.234567000000000E+05
(PID.TID 0000.0001)     ;
(PID.TID 0000.0001)  -----------------------------------
(PID.TID 0000.0001)  tracer number :   65
(PID.TID 0000.0001) PTRACERS_ioLabel = /* tracer IO Label */
(PID.TID 0000.0001)               '65'
(PID.TID 0000.0001)     ;
(PID.TID 0000.0001) PTRACERS_advScheme = /* Advection Scheme */
(PID.TID 0000.0001)                      33
(PID.TID 0000.0001)     ;
(PID.TID 0000.0001) PTRACERS_ImplVertAdv = /* implicit vert. advection flag */
(PID.TID 0000.0001)                   F
(PID.TID 0000.0001)     ;
(PID.TID 0000.0001) PTRACERS_diffKh = /* Laplacian Diffusivity */
(PID.TID 0000.0001)                 0.000000000000000E+00
(PID.TID 0000.0001)     ;
(PID.TID 0000.0001) PTRACERS_diffK4 = /* Biharmonic Diffusivity */
(PID.TID 0000.0001)                 0.000000000000000E+00
(PID.TID 0000.0001)     ;
(PID.TID 0000.0001) PTRACERS_diffKrNr = /* Vertical Diffusivity */
(PID.TID 0000.0001)    35 @  1.000000000000000E-05              /* K =  1: 35 */
(PID.TID 0000.0001)     ;
(PID.TID 0000.0001) PTRACERS_useGMRedi = /* apply GM-Redi */
(PID.TID 0000.0001)                   F
(PID.TID 0000.0001)     ;
(PID.TID 0000.0001) PTRACERS_useKPP = /* apply KPP scheme */
(PID.TID 0000.0001)                   F
(PID.TID 0000.0001)     ;
(PID.TID 0000.0001) PTRACERS_ref = /* Reference vertical profile */
(PID.TID 0000.0001)    35 @  0.000000000000000E+00              /* K =  1: 35 */
(PID.TID 0000.0001)     ;
(PID.TID 0000.0001) PTRACERS_EvPrRn =/* tracer conc. in Evap. & Rain */
(PID.TID 0000.0001)                 1.234567000000000E+05
(PID.TID 0000.0001)     ;
(PID.TID 0000.0001)  -----------------------------------
(PID.TID 0000.0001)  tracer number :   66
(PID.TID 0000.0001) PTRACERS_ioLabel = /* tracer IO Label */
(PID.TID 0000.0001)               '66'
(PID.TID 0000.0001)     ;
(PID.TID 0000.0001) PTRACERS_advScheme = /* Advection Scheme */
(PID.TID 0000.0001)                      33
(PID.TID 0000.0001)     ;
(PID.TID 0000.0001) PTRACERS_ImplVertAdv = /* implicit vert. advection flag */
(PID.TID 0000.0001)                   F
(PID.TID 0000.0001)     ;
(PID.TID 0000.0001) PTRACERS_diffKh = /* Laplacian Diffusivity */
(PID.TID 0000.0001)                 0.000000000000000E+00
(PID.TID 0000.0001)     ;
(PID.TID 0000.0001) PTRACERS_diffK4 = /* Biharmonic Diffusivity */
(PID.TID 0000.0001)                 0.000000000000000E+00
(PID.TID 0000.0001)     ;
(PID.TID 0000.0001) PTRACERS_diffKrNr = /* Vertical Diffusivity */
(PID.TID 0000.0001)    35 @  1.000000000000000E-05              /* K =  1: 35 */
(PID.TID 0000.0001)     ;
(PID.TID 0000.0001) PTRACERS_useGMRedi = /* apply GM-Redi */
(PID.TID 0000.0001)                   F
(PID.TID 0000.0001)     ;
(PID.TID 0000.0001) PTRACERS_useKPP = /* apply KPP scheme */
(PID.TID 0000.0001)                   F
(PID.TID 0000.0001)     ;
(PID.TID 0000.0001) PTRACERS_ref = /* Reference vertical profile */
(PID.TID 0000.0001)    35 @  0.000000000000000E+00              /* K =  1: 35 */
(PID.TID 0000.0001)     ;
(PID.TID 0000.0001) PTRACERS_EvPrRn =/* tracer conc. in Evap. & Rain */
(PID.TID 0000.0001)                 1.234567000000000E+05
(PID.TID 0000.0001)     ;
(PID.TID 0000.0001)  -----------------------------------
(PID.TID 0000.0001)  tracer number :   67
(PID.TID 0000.0001) PTRACERS_ioLabel = /* tracer IO Label */
(PID.TID 0000.0001)               '67'
(PID.TID 0000.0001)     ;
(PID.TID 0000.0001) PTRACERS_advScheme = /* Advection Scheme */
(PID.TID 0000.0001)                      33
(PID.TID 0000.0001)     ;
(PID.TID 0000.0001) PTRACERS_ImplVertAdv = /* implicit vert. advection flag */
(PID.TID 0000.0001)                   F
(PID.TID 0000.0001)     ;
(PID.TID 0000.0001) PTRACERS_diffKh = /* Laplacian Diffusivity */
(PID.TID 0000.0001)                 0.000000000000000E+00
(PID.TID 0000.0001)     ;
(PID.TID 0000.0001) PTRACERS_diffK4 = /* Biharmonic Diffusivity */
(PID.TID 0000.0001)                 0.000000000000000E+00
(PID.TID 0000.0001)     ;
(PID.TID 0000.0001) PTRACERS_diffKrNr = /* Vertical Diffusivity */
(PID.TID 0000.0001)    35 @  1.000000000000000E-05              /* K =  1: 35 */
(PID.TID 0000.0001)     ;
(PID.TID 0000.0001) PTRACERS_useGMRedi = /* apply GM-Redi */
(PID.TID 0000.0001)                   F
(PID.TID 0000.0001)     ;
(PID.TID 0000.0001) PTRACERS_useKPP = /* apply KPP scheme */
(PID.TID 0000.0001)                   F
(PID.TID 0000.0001)     ;
(PID.TID 0000.0001) PTRACERS_ref = /* Reference vertical profile */
(PID.TID 0000.0001)    35 @  0.000000000000000E+00              /* K =  1: 35 */
(PID.TID 0000.0001)     ;
(PID.TID 0000.0001) PTRACERS_EvPrRn =/* tracer conc. in Evap. & Rain */
(PID.TID 0000.0001)                 1.234567000000000E+05
(PID.TID 0000.0001)     ;
(PID.TID 0000.0001)  -----------------------------------
(PID.TID 0000.0001)  tracer number :   68
(PID.TID 0000.0001) PTRACERS_ioLabel = /* tracer IO Label */
(PID.TID 0000.0001)               '68'
(PID.TID 0000.0001)     ;
(PID.TID 0000.0001) PTRACERS_advScheme = /* Advection Scheme */
(PID.TID 0000.0001)                      33
(PID.TID 0000.0001)     ;
(PID.TID 0000.0001) PTRACERS_ImplVertAdv = /* implicit vert. advection flag */
(PID.TID 0000.0001)                   F
(PID.TID 0000.0001)     ;
(PID.TID 0000.0001) PTRACERS_diffKh = /* Laplacian Diffusivity */
(PID.TID 0000.0001)                 0.000000000000000E+00
(PID.TID 0000.0001)     ;
(PID.TID 0000.0001) PTRACERS_diffK4 = /* Biharmonic Diffusivity */
(PID.TID 0000.0001)                 0.000000000000000E+00
(PID.TID 0000.0001)     ;
(PID.TID 0000.0001) PTRACERS_diffKrNr = /* Vertical Diffusivity */
(PID.TID 0000.0001)    35 @  1.000000000000000E-05              /* K =  1: 35 */
(PID.TID 0000.0001)     ;
(PID.TID 0000.0001) PTRACERS_useGMRedi = /* apply GM-Redi */
(PID.TID 0000.0001)                   F
(PID.TID 0000.0001)     ;
(PID.TID 0000.0001) PTRACERS_useKPP = /* apply KPP scheme */
(PID.TID 0000.0001)                   F
(PID.TID 0000.0001)     ;
(PID.TID 0000.0001) PTRACERS_ref = /* Reference vertical profile */
(PID.TID 0000.0001)    35 @  0.000000000000000E+00              /* K =  1: 35 */
(PID.TID 0000.0001)     ;
(PID.TID 0000.0001) PTRACERS_EvPrRn =/* tracer conc. in Evap. & Rain */
(PID.TID 0000.0001)                 1.234567000000000E+05
(PID.TID 0000.0001)     ;
(PID.TID 0000.0001)  -----------------------------------
(PID.TID 0000.0001)  tracer number :   69
(PID.TID 0000.0001) PTRACERS_ioLabel = /* tracer IO Label */
(PID.TID 0000.0001)               '69'
(PID.TID 0000.0001)     ;
(PID.TID 0000.0001) PTRACERS_advScheme = /* Advection Scheme */
(PID.TID 0000.0001)                      33
(PID.TID 0000.0001)     ;
(PID.TID 0000.0001) PTRACERS_ImplVertAdv = /* implicit vert. advection flag */
(PID.TID 0000.0001)                   F
(PID.TID 0000.0001)     ;
(PID.TID 0000.0001) PTRACERS_diffKh = /* Laplacian Diffusivity */
(PID.TID 0000.0001)                 0.000000000000000E+00
(PID.TID 0000.0001)     ;
(PID.TID 0000.0001) PTRACERS_diffK4 = /* Biharmonic Diffusivity */
(PID.TID 0000.0001)                 0.000000000000000E+00
(PID.TID 0000.0001)     ;
(PID.TID 0000.0001) PTRACERS_diffKrNr = /* Vertical Diffusivity */
(PID.TID 0000.0001)    35 @  1.000000000000000E-05              /* K =  1: 35 */
(PID.TID 0000.0001)     ;
(PID.TID 0000.0001) PTRACERS_useGMRedi = /* apply GM-Redi */
(PID.TID 0000.0001)                   F
(PID.TID 0000.0001)     ;
(PID.TID 0000.0001) PTRACERS_useKPP = /* apply KPP scheme */
(PID.TID 0000.0001)                   F
(PID.TID 0000.0001)     ;
(PID.TID 0000.0001) PTRACERS_ref = /* Reference vertical profile */
(PID.TID 0000.0001)    35 @  0.000000000000000E+00              /* K =  1: 35 */
(PID.TID 0000.0001)     ;
(PID.TID 0000.0001) PTRACERS_EvPrRn =/* tracer conc. in Evap. & Rain */
(PID.TID 0000.0001)                 1.234567000000000E+05
(PID.TID 0000.0001)     ;
(PID.TID 0000.0001)  -----------------------------------
(PID.TID 0000.0001)  tracer number :   70
(PID.TID 0000.0001) PTRACERS_ioLabel = /* tracer IO Label */
(PID.TID 0000.0001)               '70'
(PID.TID 0000.0001)     ;
(PID.TID 0000.0001) PTRACERS_advScheme = /* Advection Scheme */
(PID.TID 0000.0001)                      33
(PID.TID 0000.0001)     ;
(PID.TID 0000.0001) PTRACERS_ImplVertAdv = /* implicit vert. advection flag */
(PID.TID 0000.0001)                   F
(PID.TID 0000.0001)     ;
(PID.TID 0000.0001) PTRACERS_diffKh = /* Laplacian Diffusivity */
(PID.TID 0000.0001)                 0.000000000000000E+00
(PID.TID 0000.0001)     ;
(PID.TID 0000.0001) PTRACERS_diffK4 = /* Biharmonic Diffusivity */
(PID.TID 0000.0001)                 0.000000000000000E+00
(PID.TID 0000.0001)     ;
(PID.TID 0000.0001) PTRACERS_diffKrNr = /* Vertical Diffusivity */
(PID.TID 0000.0001)    35 @  1.000000000000000E-05              /* K =  1: 35 */
(PID.TID 0000.0001)     ;
(PID.TID 0000.0001) PTRACERS_useGMRedi = /* apply GM-Redi */
(PID.TID 0000.0001)                   F
(PID.TID 0000.0001)     ;
(PID.TID 0000.0001) PTRACERS_useKPP = /* apply KPP scheme */
(PID.TID 0000.0001)                   F
(PID.TID 0000.0001)     ;
(PID.TID 0000.0001) PTRACERS_ref = /* Reference vertical profile */
(PID.TID 0000.0001)    35 @  0.000000000000000E+00              /* K =  1: 35 */
(PID.TID 0000.0001)     ;
(PID.TID 0000.0001) PTRACERS_EvPrRn =/* tracer conc. in Evap. & Rain */
(PID.TID 0000.0001)                 1.234567000000000E+05
(PID.TID 0000.0001)     ;
(PID.TID 0000.0001)  -----------------------------------
(PID.TID 0000.0001)  tracer number :   71
(PID.TID 0000.0001) PTRACERS_ioLabel = /* tracer IO Label */
(PID.TID 0000.0001)               '71'
(PID.TID 0000.0001)     ;
(PID.TID 0000.0001) PTRACERS_advScheme = /* Advection Scheme */
(PID.TID 0000.0001)                      33
(PID.TID 0000.0001)     ;
(PID.TID 0000.0001) PTRACERS_ImplVertAdv = /* implicit vert. advection flag */
(PID.TID 0000.0001)                   F
(PID.TID 0000.0001)     ;
(PID.TID 0000.0001) PTRACERS_diffKh = /* Laplacian Diffusivity */
(PID.TID 0000.0001)                 0.000000000000000E+00
(PID.TID 0000.0001)     ;
(PID.TID 0000.0001) PTRACERS_diffK4 = /* Biharmonic Diffusivity */
(PID.TID 0000.0001)                 0.000000000000000E+00
(PID.TID 0000.0001)     ;
(PID.TID 0000.0001) PTRACERS_diffKrNr = /* Vertical Diffusivity */
(PID.TID 0000.0001)    35 @  1.000000000000000E-05              /* K =  1: 35 */
(PID.TID 0000.0001)     ;
(PID.TID 0000.0001) PTRACERS_useGMRedi = /* apply GM-Redi */
(PID.TID 0000.0001)                   F
(PID.TID 0000.0001)     ;
(PID.TID 0000.0001) PTRACERS_useKPP = /* apply KPP scheme */
(PID.TID 0000.0001)                   F
(PID.TID 0000.0001)     ;
(PID.TID 0000.0001) PTRACERS_ref = /* Reference vertical profile */
(PID.TID 0000.0001)    35 @  0.000000000000000E+00              /* K =  1: 35 */
(PID.TID 0000.0001)     ;
(PID.TID 0000.0001) PTRACERS_EvPrRn =/* tracer conc. in Evap. & Rain */
(PID.TID 0000.0001)                 1.234567000000000E+05
(PID.TID 0000.0001)     ;
(PID.TID 0000.0001)  -----------------------------------
(PID.TID 0000.0001)  tracer number :   72
(PID.TID 0000.0001) PTRACERS_ioLabel = /* tracer IO Label */
(PID.TID 0000.0001)               '72'
(PID.TID 0000.0001)     ;
(PID.TID 0000.0001) PTRACERS_advScheme = /* Advection Scheme */
(PID.TID 0000.0001)                      33
(PID.TID 0000.0001)     ;
(PID.TID 0000.0001) PTRACERS_ImplVertAdv = /* implicit vert. advection flag */
(PID.TID 0000.0001)                   F
(PID.TID 0000.0001)     ;
(PID.TID 0000.0001) PTRACERS_diffKh = /* Laplacian Diffusivity */
(PID.TID 0000.0001)                 0.000000000000000E+00
(PID.TID 0000.0001)     ;
(PID.TID 0000.0001) PTRACERS_diffK4 = /* Biharmonic Diffusivity */
(PID.TID 0000.0001)                 0.000000000000000E+00
(PID.TID 0000.0001)     ;
(PID.TID 0000.0001) PTRACERS_diffKrNr = /* Vertical Diffusivity */
(PID.TID 0000.0001)    35 @  1.000000000000000E-05              /* K =  1: 35 */
(PID.TID 0000.0001)     ;
(PID.TID 0000.0001) PTRACERS_useGMRedi = /* apply GM-Redi */
(PID.TID 0000.0001)                   F
(PID.TID 0000.0001)     ;
(PID.TID 0000.0001) PTRACERS_useKPP = /* apply KPP scheme */
(PID.TID 0000.0001)                   F
(PID.TID 0000.0001)     ;
(PID.TID 0000.0001) PTRACERS_ref = /* Reference vertical profile */
(PID.TID 0000.0001)    35 @  0.000000000000000E+00              /* K =  1: 35 */
(PID.TID 0000.0001)     ;
(PID.TID 0000.0001) PTRACERS_EvPrRn =/* tracer conc. in Evap. & Rain */
(PID.TID 0000.0001)                 1.234567000000000E+05
(PID.TID 0000.0001)     ;
(PID.TID 0000.0001)  -----------------------------------
(PID.TID 0000.0001)  tracer number :   73
(PID.TID 0000.0001) PTRACERS_ioLabel = /* tracer IO Label */
(PID.TID 0000.0001)               '73'
(PID.TID 0000.0001)     ;
(PID.TID 0000.0001) PTRACERS_advScheme = /* Advection Scheme */
(PID.TID 0000.0001)                      33
(PID.TID 0000.0001)     ;
(PID.TID 0000.0001) PTRACERS_ImplVertAdv = /* implicit vert. advection flag */
(PID.TID 0000.0001)                   F
(PID.TID 0000.0001)     ;
(PID.TID 0000.0001) PTRACERS_diffKh = /* Laplacian Diffusivity */
(PID.TID 0000.0001)                 0.000000000000000E+00
(PID.TID 0000.0001)     ;
(PID.TID 0000.0001) PTRACERS_diffK4 = /* Biharmonic Diffusivity */
(PID.TID 0000.0001)                 0.000000000000000E+00
(PID.TID 0000.0001)     ;
(PID.TID 0000.0001) PTRACERS_diffKrNr = /* Vertical Diffusivity */
(PID.TID 0000.0001)    35 @  1.000000000000000E-05              /* K =  1: 35 */
(PID.TID 0000.0001)     ;
(PID.TID 0000.0001) PTRACERS_useGMRedi = /* apply GM-Redi */
(PID.TID 0000.0001)                   F
(PID.TID 0000.0001)     ;
(PID.TID 0000.0001) PTRACERS_useKPP = /* apply KPP scheme */
(PID.TID 0000.0001)                   F
(PID.TID 0000.0001)     ;
(PID.TID 0000.0001) PTRACERS_ref = /* Reference vertical profile */
(PID.TID 0000.0001)    35 @  0.000000000000000E+00              /* K =  1: 35 */
(PID.TID 0000.0001)     ;
(PID.TID 0000.0001) PTRACERS_EvPrRn =/* tracer conc. in Evap. & Rain */
(PID.TID 0000.0001)                 1.234567000000000E+05
(PID.TID 0000.0001)     ;
(PID.TID 0000.0001)  -----------------------------------
(PID.TID 0000.0001)  tracer number :   74
(PID.TID 0000.0001) PTRACERS_ioLabel = /* tracer IO Label */
(PID.TID 0000.0001)               '74'
(PID.TID 0000.0001)     ;
(PID.TID 0000.0001) PTRACERS_advScheme = /* Advection Scheme */
(PID.TID 0000.0001)                      33
(PID.TID 0000.0001)     ;
(PID.TID 0000.0001) PTRACERS_ImplVertAdv = /* implicit vert. advection flag */
(PID.TID 0000.0001)                   F
(PID.TID 0000.0001)     ;
(PID.TID 0000.0001) PTRACERS_diffKh = /* Laplacian Diffusivity */
(PID.TID 0000.0001)                 0.000000000000000E+00
(PID.TID 0000.0001)     ;
(PID.TID 0000.0001) PTRACERS_diffK4 = /* Biharmonic Diffusivity */
(PID.TID 0000.0001)                 0.000000000000000E+00
(PID.TID 0000.0001)     ;
(PID.TID 0000.0001) PTRACERS_diffKrNr = /* Vertical Diffusivity */
(PID.TID 0000.0001)    35 @  1.000000000000000E-05              /* K =  1: 35 */
(PID.TID 0000.0001)     ;
(PID.TID 0000.0001) PTRACERS_useGMRedi = /* apply GM-Redi */
(PID.TID 0000.0001)                   F
(PID.TID 0000.0001)     ;
(PID.TID 0000.0001) PTRACERS_useKPP = /* apply KPP scheme */
(PID.TID 0000.0001)                   F
(PID.TID 0000.0001)     ;
(PID.TID 0000.0001) PTRACERS_ref = /* Reference vertical profile */
(PID.TID 0000.0001)    35 @  0.000000000000000E+00              /* K =  1: 35 */
(PID.TID 0000.0001)     ;
(PID.TID 0000.0001) PTRACERS_EvPrRn =/* tracer conc. in Evap. & Rain */
(PID.TID 0000.0001)                 1.234567000000000E+05
(PID.TID 0000.0001)     ;
(PID.TID 0000.0001)  -----------------------------------
(PID.TID 0000.0001)  tracer number :   75
(PID.TID 0000.0001) PTRACERS_ioLabel = /* tracer IO Label */
(PID.TID 0000.0001)               '75'
(PID.TID 0000.0001)     ;
(PID.TID 0000.0001) PTRACERS_advScheme = /* Advection Scheme */
(PID.TID 0000.0001)                      33
(PID.TID 0000.0001)     ;
(PID.TID 0000.0001) PTRACERS_ImplVertAdv = /* implicit vert. advection flag */
(PID.TID 0000.0001)                   F
(PID.TID 0000.0001)     ;
(PID.TID 0000.0001) PTRACERS_diffKh = /* Laplacian Diffusivity */
(PID.TID 0000.0001)                 0.000000000000000E+00
(PID.TID 0000.0001)     ;
(PID.TID 0000.0001) PTRACERS_diffK4 = /* Biharmonic Diffusivity */
(PID.TID 0000.0001)                 0.000000000000000E+00
(PID.TID 0000.0001)     ;
(PID.TID 0000.0001) PTRACERS_diffKrNr = /* Vertical Diffusivity */
(PID.TID 0000.0001)    35 @  1.000000000000000E-05              /* K =  1: 35 */
(PID.TID 0000.0001)     ;
(PID.TID 0000.0001) PTRACERS_useGMRedi = /* apply GM-Redi */
(PID.TID 0000.0001)                   F
(PID.TID 0000.0001)     ;
(PID.TID 0000.0001) PTRACERS_useKPP = /* apply KPP scheme */
(PID.TID 0000.0001)                   F
(PID.TID 0000.0001)     ;
(PID.TID 0000.0001) PTRACERS_ref = /* Reference vertical profile */
(PID.TID 0000.0001)    35 @  0.000000000000000E+00              /* K =  1: 35 */
(PID.TID 0000.0001)     ;
(PID.TID 0000.0001) PTRACERS_EvPrRn =/* tracer conc. in Evap. & Rain */
(PID.TID 0000.0001)                 1.234567000000000E+05
(PID.TID 0000.0001)     ;
(PID.TID 0000.0001)  -----------------------------------
(PID.TID 0000.0001)  tracer number :   76
(PID.TID 0000.0001) PTRACERS_ioLabel = /* tracer IO Label */
(PID.TID 0000.0001)               '76'
(PID.TID 0000.0001)     ;
(PID.TID 0000.0001) PTRACERS_advScheme = /* Advection Scheme */
(PID.TID 0000.0001)                      33
(PID.TID 0000.0001)     ;
(PID.TID 0000.0001) PTRACERS_ImplVertAdv = /* implicit vert. advection flag */
(PID.TID 0000.0001)                   F
(PID.TID 0000.0001)     ;
(PID.TID 0000.0001) PTRACERS_diffKh = /* Laplacian Diffusivity */
(PID.TID 0000.0001)                 0.000000000000000E+00
(PID.TID 0000.0001)     ;
(PID.TID 0000.0001) PTRACERS_diffK4 = /* Biharmonic Diffusivity */
(PID.TID 0000.0001)                 0.000000000000000E+00
(PID.TID 0000.0001)     ;
(PID.TID 0000.0001) PTRACERS_diffKrNr = /* Vertical Diffusivity */
(PID.TID 0000.0001)    35 @  1.000000000000000E-05              /* K =  1: 35 */
(PID.TID 0000.0001)     ;
(PID.TID 0000.0001) PTRACERS_useGMRedi = /* apply GM-Redi */
(PID.TID 0000.0001)                   F
(PID.TID 0000.0001)     ;
(PID.TID 0000.0001) PTRACERS_useKPP = /* apply KPP scheme */
(PID.TID 0000.0001)                   F
(PID.TID 0000.0001)     ;
(PID.TID 0000.0001) PTRACERS_ref = /* Reference vertical profile */
(PID.TID 0000.0001)    35 @  0.000000000000000E+00              /* K =  1: 35 */
(PID.TID 0000.0001)     ;
(PID.TID 0000.0001) PTRACERS_EvPrRn =/* tracer conc. in Evap. & Rain */
(PID.TID 0000.0001)                 1.234567000000000E+05
(PID.TID 0000.0001)     ;
(PID.TID 0000.0001)  -----------------------------------
(PID.TID 0000.0001)  tracer number :   77
(PID.TID 0000.0001) PTRACERS_ioLabel = /* tracer IO Label */
(PID.TID 0000.0001)               '77'
(PID.TID 0000.0001)     ;
(PID.TID 0000.0001) PTRACERS_advScheme = /* Advection Scheme */
(PID.TID 0000.0001)                      33
(PID.TID 0000.0001)     ;
(PID.TID 0000.0001) PTRACERS_ImplVertAdv = /* implicit vert. advection flag */
(PID.TID 0000.0001)                   F
(PID.TID 0000.0001)     ;
(PID.TID 0000.0001) PTRACERS_diffKh = /* Laplacian Diffusivity */
(PID.TID 0000.0001)                 0.000000000000000E+00
(PID.TID 0000.0001)     ;
(PID.TID 0000.0001) PTRACERS_diffK4 = /* Biharmonic Diffusivity */
(PID.TID 0000.0001)                 0.000000000000000E+00
(PID.TID 0000.0001)     ;
(PID.TID 0000.0001) PTRACERS_diffKrNr = /* Vertical Diffusivity */
(PID.TID 0000.0001)    35 @  1.000000000000000E-05              /* K =  1: 35 */
(PID.TID 0000.0001)     ;
(PID.TID 0000.0001) PTRACERS_useGMRedi = /* apply GM-Redi */
(PID.TID 0000.0001)                   F
(PID.TID 0000.0001)     ;
(PID.TID 0000.0001) PTRACERS_useKPP = /* apply KPP scheme */
(PID.TID 0000.0001)                   F
(PID.TID 0000.0001)     ;
(PID.TID 0000.0001) PTRACERS_ref = /* Reference vertical profile */
(PID.TID 0000.0001)    35 @  0.000000000000000E+00              /* K =  1: 35 */
(PID.TID 0000.0001)     ;
(PID.TID 0000.0001) PTRACERS_EvPrRn =/* tracer conc. in Evap. & Rain */
(PID.TID 0000.0001)                 1.234567000000000E+05
(PID.TID 0000.0001)     ;
(PID.TID 0000.0001)  -----------------------------------
(PID.TID 0000.0001)  tracer number :   78
(PID.TID 0000.0001) PTRACERS_ioLabel = /* tracer IO Label */
(PID.TID 0000.0001)               '78'
(PID.TID 0000.0001)     ;
(PID.TID 0000.0001) PTRACERS_advScheme = /* Advection Scheme */
(PID.TID 0000.0001)                      33
(PID.TID 0000.0001)     ;
(PID.TID 0000.0001) PTRACERS_ImplVertAdv = /* implicit vert. advection flag */
(PID.TID 0000.0001)                   F
(PID.TID 0000.0001)     ;
(PID.TID 0000.0001) PTRACERS_diffKh = /* Laplacian Diffusivity */
(PID.TID 0000.0001)                 0.000000000000000E+00
(PID.TID 0000.0001)     ;
(PID.TID 0000.0001) PTRACERS_diffK4 = /* Biharmonic Diffusivity */
(PID.TID 0000.0001)                 0.000000000000000E+00
(PID.TID 0000.0001)     ;
(PID.TID 0000.0001) PTRACERS_diffKrNr = /* Vertical Diffusivity */
(PID.TID 0000.0001)    35 @  1.000000000000000E-05              /* K =  1: 35 */
(PID.TID 0000.0001)     ;
(PID.TID 0000.0001) PTRACERS_useGMRedi = /* apply GM-Redi */
(PID.TID 0000.0001)                   F
(PID.TID 0000.0001)     ;
(PID.TID 0000.0001) PTRACERS_useKPP = /* apply KPP scheme */
(PID.TID 0000.0001)                   F
(PID.TID 0000.0001)     ;
(PID.TID 0000.0001) PTRACERS_ref = /* Reference vertical profile */
(PID.TID 0000.0001)    35 @  0.000000000000000E+00              /* K =  1: 35 */
(PID.TID 0000.0001)     ;
(PID.TID 0000.0001) PTRACERS_EvPrRn =/* tracer conc. in Evap. & Rain */
(PID.TID 0000.0001)                 1.234567000000000E+05
(PID.TID 0000.0001)     ;
(PID.TID 0000.0001)  -----------------------------------
(PID.TID 0000.0001)  tracer number :   79
(PID.TID 0000.0001) PTRACERS_ioLabel = /* tracer IO Label */
(PID.TID 0000.0001)               '79'
(PID.TID 0000.0001)     ;
(PID.TID 0000.0001) PTRACERS_advScheme = /* Advection Scheme */
(PID.TID 0000.0001)                      33
(PID.TID 0000.0001)     ;
(PID.TID 0000.0001) PTRACERS_ImplVertAdv = /* implicit vert. advection flag */
(PID.TID 0000.0001)                   F
(PID.TID 0000.0001)     ;
(PID.TID 0000.0001) PTRACERS_diffKh = /* Laplacian Diffusivity */
(PID.TID 0000.0001)                 0.000000000000000E+00
(PID.TID 0000.0001)     ;
(PID.TID 0000.0001) PTRACERS_diffK4 = /* Biharmonic Diffusivity */
(PID.TID 0000.0001)                 0.000000000000000E+00
(PID.TID 0000.0001)     ;
(PID.TID 0000.0001) PTRACERS_diffKrNr = /* Vertical Diffusivity */
(PID.TID 0000.0001)    35 @  1.000000000000000E-05              /* K =  1: 35 */
(PID.TID 0000.0001)     ;
(PID.TID 0000.0001) PTRACERS_useGMRedi = /* apply GM-Redi */
(PID.TID 0000.0001)                   F
(PID.TID 0000.0001)     ;
(PID.TID 0000.0001) PTRACERS_useKPP = /* apply KPP scheme */
(PID.TID 0000.0001)                   F
(PID.TID 0000.0001)     ;
(PID.TID 0000.0001) PTRACERS_ref = /* Reference vertical profile */
(PID.TID 0000.0001)    35 @  0.000000000000000E+00              /* K =  1: 35 */
(PID.TID 0000.0001)     ;
(PID.TID 0000.0001) PTRACERS_EvPrRn =/* tracer conc. in Evap. & Rain */
(PID.TID 0000.0001)                 1.234567000000000E+05
(PID.TID 0000.0001)     ;
(PID.TID 0000.0001)  -----------------------------------
(PID.TID 0000.0001)  tracer number :   80
(PID.TID 0000.0001) PTRACERS_ioLabel = /* tracer IO Label */
(PID.TID 0000.0001)               '80'
(PID.TID 0000.0001)     ;
(PID.TID 0000.0001) PTRACERS_advScheme = /* Advection Scheme */
(PID.TID 0000.0001)                      33
(PID.TID 0000.0001)     ;
(PID.TID 0000.0001) PTRACERS_ImplVertAdv = /* implicit vert. advection flag */
(PID.TID 0000.0001)                   F
(PID.TID 0000.0001)     ;
(PID.TID 0000.0001) PTRACERS_diffKh = /* Laplacian Diffusivity */
(PID.TID 0000.0001)                 0.000000000000000E+00
(PID.TID 0000.0001)     ;
(PID.TID 0000.0001) PTRACERS_diffK4 = /* Biharmonic Diffusivity */
(PID.TID 0000.0001)                 0.000000000000000E+00
(PID.TID 0000.0001)     ;
(PID.TID 0000.0001) PTRACERS_diffKrNr = /* Vertical Diffusivity */
(PID.TID 0000.0001)    35 @  1.000000000000000E-05              /* K =  1: 35 */
(PID.TID 0000.0001)     ;
(PID.TID 0000.0001) PTRACERS_useGMRedi = /* apply GM-Redi */
(PID.TID 0000.0001)                   F
(PID.TID 0000.0001)     ;
(PID.TID 0000.0001) PTRACERS_useKPP = /* apply KPP scheme */
(PID.TID 0000.0001)                   F
(PID.TID 0000.0001)     ;
(PID.TID 0000.0001) PTRACERS_ref = /* Reference vertical profile */
(PID.TID 0000.0001)    35 @  0.000000000000000E+00              /* K =  1: 35 */
(PID.TID 0000.0001)     ;
(PID.TID 0000.0001) PTRACERS_EvPrRn =/* tracer conc. in Evap. & Rain */
(PID.TID 0000.0001)                 1.234567000000000E+05
(PID.TID 0000.0001)     ;
(PID.TID 0000.0001)  -----------------------------------
(PID.TID 0000.0001)  tracer number :   81
(PID.TID 0000.0001) PTRACERS_ioLabel = /* tracer IO Label */
(PID.TID 0000.0001)               '81'
(PID.TID 0000.0001)     ;
(PID.TID 0000.0001) PTRACERS_advScheme = /* Advection Scheme */
(PID.TID 0000.0001)                      33
(PID.TID 0000.0001)     ;
(PID.TID 0000.0001) PTRACERS_ImplVertAdv = /* implicit vert. advection flag */
(PID.TID 0000.0001)                   F
(PID.TID 0000.0001)     ;
(PID.TID 0000.0001) PTRACERS_diffKh = /* Laplacian Diffusivity */
(PID.TID 0000.0001)                 0.000000000000000E+00
(PID.TID 0000.0001)     ;
(PID.TID 0000.0001) PTRACERS_diffK4 = /* Biharmonic Diffusivity */
(PID.TID 0000.0001)                 0.000000000000000E+00
(PID.TID 0000.0001)     ;
(PID.TID 0000.0001) PTRACERS_diffKrNr = /* Vertical Diffusivity */
(PID.TID 0000.0001)    35 @  1.000000000000000E-05              /* K =  1: 35 */
(PID.TID 0000.0001)     ;
(PID.TID 0000.0001) PTRACERS_useGMRedi = /* apply GM-Redi */
(PID.TID 0000.0001)                   F
(PID.TID 0000.0001)     ;
(PID.TID 0000.0001) PTRACERS_useKPP = /* apply KPP scheme */
(PID.TID 0000.0001)                   F
(PID.TID 0000.0001)     ;
(PID.TID 0000.0001) PTRACERS_ref = /* Reference vertical profile */
(PID.TID 0000.0001)    35 @  0.000000000000000E+00              /* K =  1: 35 */
(PID.TID 0000.0001)     ;
(PID.TID 0000.0001) PTRACERS_EvPrRn =/* tracer conc. in Evap. & Rain */
(PID.TID 0000.0001)                 1.234567000000000E+05
(PID.TID 0000.0001)     ;
(PID.TID 0000.0001)  -----------------------------------
(PID.TID 0000.0001)  tracer number :   82
(PID.TID 0000.0001) PTRACERS_ioLabel = /* tracer IO Label */
(PID.TID 0000.0001)               '82'
(PID.TID 0000.0001)     ;
(PID.TID 0000.0001) PTRACERS_advScheme = /* Advection Scheme */
(PID.TID 0000.0001)                      33
(PID.TID 0000.0001)     ;
(PID.TID 0000.0001) PTRACERS_ImplVertAdv = /* implicit vert. advection flag */
(PID.TID 0000.0001)                   F
(PID.TID 0000.0001)     ;
(PID.TID 0000.0001) PTRACERS_diffKh = /* Laplacian Diffusivity */
(PID.TID 0000.0001)                 0.000000000000000E+00
(PID.TID 0000.0001)     ;
(PID.TID 0000.0001) PTRACERS_diffK4 = /* Biharmonic Diffusivity */
(PID.TID 0000.0001)                 0.000000000000000E+00
(PID.TID 0000.0001)     ;
(PID.TID 0000.0001) PTRACERS_diffKrNr = /* Vertical Diffusivity */
(PID.TID 0000.0001)    35 @  1.000000000000000E-05              /* K =  1: 35 */
(PID.TID 0000.0001)     ;
(PID.TID 0000.0001) PTRACERS_useGMRedi = /* apply GM-Redi */
(PID.TID 0000.0001)                   F
(PID.TID 0000.0001)     ;
(PID.TID 0000.0001) PTRACERS_useKPP = /* apply KPP scheme */
(PID.TID 0000.0001)                   F
(PID.TID 0000.0001)     ;
(PID.TID 0000.0001) PTRACERS_ref = /* Reference vertical profile */
(PID.TID 0000.0001)    35 @  0.000000000000000E+00              /* K =  1: 35 */
(PID.TID 0000.0001)     ;
(PID.TID 0000.0001) PTRACERS_EvPrRn =/* tracer conc. in Evap. & Rain */
(PID.TID 0000.0001)                 1.234567000000000E+05
(PID.TID 0000.0001)     ;
(PID.TID 0000.0001)  -----------------------------------
(PID.TID 0000.0001)  tracer number :   83
(PID.TID 0000.0001) PTRACERS_ioLabel = /* tracer IO Label */
(PID.TID 0000.0001)               '83'
(PID.TID 0000.0001)     ;
(PID.TID 0000.0001) PTRACERS_advScheme = /* Advection Scheme */
(PID.TID 0000.0001)                      33
(PID.TID 0000.0001)     ;
(PID.TID 0000.0001) PTRACERS_ImplVertAdv = /* implicit vert. advection flag */
(PID.TID 0000.0001)                   F
(PID.TID 0000.0001)     ;
(PID.TID 0000.0001) PTRACERS_diffKh = /* Laplacian Diffusivity */
(PID.TID 0000.0001)                 0.000000000000000E+00
(PID.TID 0000.0001)     ;
(PID.TID 0000.0001) PTRACERS_diffK4 = /* Biharmonic Diffusivity */
(PID.TID 0000.0001)                 0.000000000000000E+00
(PID.TID 0000.0001)     ;
(PID.TID 0000.0001) PTRACERS_diffKrNr = /* Vertical Diffusivity */
(PID.TID 0000.0001)    35 @  1.000000000000000E-05              /* K =  1: 35 */
(PID.TID 0000.0001)     ;
(PID.TID 0000.0001) PTRACERS_useGMRedi = /* apply GM-Redi */
(PID.TID 0000.0001)                   F
(PID.TID 0000.0001)     ;
(PID.TID 0000.0001) PTRACERS_useKPP = /* apply KPP scheme */
(PID.TID 0000.0001)                   F
(PID.TID 0000.0001)     ;
(PID.TID 0000.0001) PTRACERS_ref = /* Reference vertical profile */
(PID.TID 0000.0001)    35 @  0.000000000000000E+00              /* K =  1: 35 */
(PID.TID 0000.0001)     ;
(PID.TID 0000.0001) PTRACERS_EvPrRn =/* tracer conc. in Evap. & Rain */
(PID.TID 0000.0001)                 1.234567000000000E+05
(PID.TID 0000.0001)     ;
(PID.TID 0000.0001)  -----------------------------------
(PID.TID 0000.0001)  tracer number :   84
(PID.TID 0000.0001) PTRACERS_ioLabel = /* tracer IO Label */
(PID.TID 0000.0001)               '84'
(PID.TID 0000.0001)     ;
(PID.TID 0000.0001) PTRACERS_advScheme = /* Advection Scheme */
(PID.TID 0000.0001)                      33
(PID.TID 0000.0001)     ;
(PID.TID 0000.0001) PTRACERS_ImplVertAdv = /* implicit vert. advection flag */
(PID.TID 0000.0001)                   F
(PID.TID 0000.0001)     ;
(PID.TID 0000.0001) PTRACERS_diffKh = /* Laplacian Diffusivity */
(PID.TID 0000.0001)                 0.000000000000000E+00
(PID.TID 0000.0001)     ;
(PID.TID 0000.0001) PTRACERS_diffK4 = /* Biharmonic Diffusivity */
(PID.TID 0000.0001)                 0.000000000000000E+00
(PID.TID 0000.0001)     ;
(PID.TID 0000.0001) PTRACERS_diffKrNr = /* Vertical Diffusivity */
(PID.TID 0000.0001)    35 @  1.000000000000000E-05              /* K =  1: 35 */
(PID.TID 0000.0001)     ;
(PID.TID 0000.0001) PTRACERS_useGMRedi = /* apply GM-Redi */
(PID.TID 0000.0001)                   F
(PID.TID 0000.0001)     ;
(PID.TID 0000.0001) PTRACERS_useKPP = /* apply KPP scheme */
(PID.TID 0000.0001)                   F
(PID.TID 0000.0001)     ;
(PID.TID 0000.0001) PTRACERS_ref = /* Reference vertical profile */
(PID.TID 0000.0001)    35 @  0.000000000000000E+00              /* K =  1: 35 */
(PID.TID 0000.0001)     ;
(PID.TID 0000.0001) PTRACERS_EvPrRn =/* tracer conc. in Evap. & Rain */
(PID.TID 0000.0001)                 1.234567000000000E+05
(PID.TID 0000.0001)     ;
(PID.TID 0000.0001)  -----------------------------------
(PID.TID 0000.0001)  tracer number :   85
(PID.TID 0000.0001) PTRACERS_ioLabel = /* tracer IO Label */
(PID.TID 0000.0001)               '85'
(PID.TID 0000.0001)     ;
(PID.TID 0000.0001) PTRACERS_advScheme = /* Advection Scheme */
(PID.TID 0000.0001)                      33
(PID.TID 0000.0001)     ;
(PID.TID 0000.0001) PTRACERS_ImplVertAdv = /* implicit vert. advection flag */
(PID.TID 0000.0001)                   F
(PID.TID 0000.0001)     ;
(PID.TID 0000.0001) PTRACERS_diffKh = /* Laplacian Diffusivity */
(PID.TID 0000.0001)                 0.000000000000000E+00
(PID.TID 0000.0001)     ;
(PID.TID 0000.0001) PTRACERS_diffK4 = /* Biharmonic Diffusivity */
(PID.TID 0000.0001)                 0.000000000000000E+00
(PID.TID 0000.0001)     ;
(PID.TID 0000.0001) PTRACERS_diffKrNr = /* Vertical Diffusivity */
(PID.TID 0000.0001)    35 @  1.000000000000000E-05              /* K =  1: 35 */
(PID.TID 0000.0001)     ;
(PID.TID 0000.0001) PTRACERS_useGMRedi = /* apply GM-Redi */
(PID.TID 0000.0001)                   F
(PID.TID 0000.0001)     ;
(PID.TID 0000.0001) PTRACERS_useKPP = /* apply KPP scheme */
(PID.TID 0000.0001)                   F
(PID.TID 0000.0001)     ;
(PID.TID 0000.0001) PTRACERS_ref = /* Reference vertical profile */
(PID.TID 0000.0001)    35 @  0.000000000000000E+00              /* K =  1: 35 */
(PID.TID 0000.0001)     ;
(PID.TID 0000.0001) PTRACERS_EvPrRn =/* tracer conc. in Evap. & Rain */
(PID.TID 0000.0001)                 1.234567000000000E+05
(PID.TID 0000.0001)     ;
(PID.TID 0000.0001)  -----------------------------------
(PID.TID 0000.0001)  tracer number :   86
(PID.TID 0000.0001) PTRACERS_ioLabel = /* tracer IO Label */
(PID.TID 0000.0001)               '86'
(PID.TID 0000.0001)     ;
(PID.TID 0000.0001) PTRACERS_advScheme = /* Advection Scheme */
(PID.TID 0000.0001)                      33
(PID.TID 0000.0001)     ;
(PID.TID 0000.0001) PTRACERS_ImplVertAdv = /* implicit vert. advection flag */
(PID.TID 0000.0001)                   F
(PID.TID 0000.0001)     ;
(PID.TID 0000.0001) PTRACERS_diffKh = /* Laplacian Diffusivity */
(PID.TID 0000.0001)                 0.000000000000000E+00
(PID.TID 0000.0001)     ;
(PID.TID 0000.0001) PTRACERS_diffK4 = /* Biharmonic Diffusivity */
(PID.TID 0000.0001)                 0.000000000000000E+00
(PID.TID 0000.0001)     ;
(PID.TID 0000.0001) PTRACERS_diffKrNr = /* Vertical Diffusivity */
(PID.TID 0000.0001)    35 @  1.000000000000000E-05              /* K =  1: 35 */
(PID.TID 0000.0001)     ;
(PID.TID 0000.0001) PTRACERS_useGMRedi = /* apply GM-Redi */
(PID.TID 0000.0001)                   F
(PID.TID 0000.0001)     ;
(PID.TID 0000.0001) PTRACERS_useKPP = /* apply KPP scheme */
(PID.TID 0000.0001)                   F
(PID.TID 0000.0001)     ;
(PID.TID 0000.0001) PTRACERS_ref = /* Reference vertical profile */
(PID.TID 0000.0001)    35 @  0.000000000000000E+00              /* K =  1: 35 */
(PID.TID 0000.0001)     ;
(PID.TID 0000.0001) PTRACERS_EvPrRn =/* tracer conc. in Evap. & Rain */
(PID.TID 0000.0001)                 1.234567000000000E+05
(PID.TID 0000.0001)     ;
(PID.TID 0000.0001)  -----------------------------------
(PID.TID 0000.0001)  tracer number :   87
(PID.TID 0000.0001) PTRACERS_ioLabel = /* tracer IO Label */
(PID.TID 0000.0001)               '87'
(PID.TID 0000.0001)     ;
(PID.TID 0000.0001) PTRACERS_advScheme = /* Advection Scheme */
(PID.TID 0000.0001)                      33
(PID.TID 0000.0001)     ;
(PID.TID 0000.0001) PTRACERS_ImplVertAdv = /* implicit vert. advection flag */
(PID.TID 0000.0001)                   F
(PID.TID 0000.0001)     ;
(PID.TID 0000.0001) PTRACERS_diffKh = /* Laplacian Diffusivity */
(PID.TID 0000.0001)                 0.000000000000000E+00
(PID.TID 0000.0001)     ;
(PID.TID 0000.0001) PTRACERS_diffK4 = /* Biharmonic Diffusivity */
(PID.TID 0000.0001)                 0.000000000000000E+00
(PID.TID 0000.0001)     ;
(PID.TID 0000.0001) PTRACERS_diffKrNr = /* Vertical Diffusivity */
(PID.TID 0000.0001)    35 @  1.000000000000000E-05              /* K =  1: 35 */
(PID.TID 0000.0001)     ;
(PID.TID 0000.0001) PTRACERS_useGMRedi = /* apply GM-Redi */
(PID.TID 0000.0001)                   F
(PID.TID 0000.0001)     ;
(PID.TID 0000.0001) PTRACERS_useKPP = /* apply KPP scheme */
(PID.TID 0000.0001)                   F
(PID.TID 0000.0001)     ;
(PID.TID 0000.0001) PTRACERS_ref = /* Reference vertical profile */
(PID.TID 0000.0001)    35 @  0.000000000000000E+00              /* K =  1: 35 */
(PID.TID 0000.0001)     ;
(PID.TID 0000.0001) PTRACERS_EvPrRn =/* tracer conc. in Evap. & Rain */
(PID.TID 0000.0001)                 1.234567000000000E+05
(PID.TID 0000.0001)     ;
(PID.TID 0000.0001)  -----------------------------------
(PID.TID 0000.0001)  tracer number :   88
(PID.TID 0000.0001) PTRACERS_ioLabel = /* tracer IO Label */
(PID.TID 0000.0001)               '88'
(PID.TID 0000.0001)     ;
(PID.TID 0000.0001) PTRACERS_advScheme = /* Advection Scheme */
(PID.TID 0000.0001)                      33
(PID.TID 0000.0001)     ;
(PID.TID 0000.0001) PTRACERS_ImplVertAdv = /* implicit vert. advection flag */
(PID.TID 0000.0001)                   F
(PID.TID 0000.0001)     ;
(PID.TID 0000.0001) PTRACERS_diffKh = /* Laplacian Diffusivity */
(PID.TID 0000.0001)                 0.000000000000000E+00
(PID.TID 0000.0001)     ;
(PID.TID 0000.0001) PTRACERS_diffK4 = /* Biharmonic Diffusivity */
(PID.TID 0000.0001)                 0.000000000000000E+00
(PID.TID 0000.0001)     ;
(PID.TID 0000.0001) PTRACERS_diffKrNr = /* Vertical Diffusivity */
(PID.TID 0000.0001)    35 @  1.000000000000000E-05              /* K =  1: 35 */
(PID.TID 0000.0001)     ;
(PID.TID 0000.0001) PTRACERS_useGMRedi = /* apply GM-Redi */
(PID.TID 0000.0001)                   F
(PID.TID 0000.0001)     ;
(PID.TID 0000.0001) PTRACERS_useKPP = /* apply KPP scheme */
(PID.TID 0000.0001)                   F
(PID.TID 0000.0001)     ;
(PID.TID 0000.0001) PTRACERS_ref = /* Reference vertical profile */
(PID.TID 0000.0001)    35 @  0.000000000000000E+00              /* K =  1: 35 */
(PID.TID 0000.0001)     ;
(PID.TID 0000.0001) PTRACERS_EvPrRn =/* tracer conc. in Evap. & Rain */
(PID.TID 0000.0001)                 1.234567000000000E+05
(PID.TID 0000.0001)     ;
(PID.TID 0000.0001)  -----------------------------------
(PID.TID 0000.0001)  tracer number :   89
(PID.TID 0000.0001) PTRACERS_ioLabel = /* tracer IO Label */
(PID.TID 0000.0001)               '89'
(PID.TID 0000.0001)     ;
(PID.TID 0000.0001) PTRACERS_advScheme = /* Advection Scheme */
(PID.TID 0000.0001)                      33
(PID.TID 0000.0001)     ;
(PID.TID 0000.0001) PTRACERS_ImplVertAdv = /* implicit vert. advection flag */
(PID.TID 0000.0001)                   F
(PID.TID 0000.0001)     ;
(PID.TID 0000.0001) PTRACERS_diffKh = /* Laplacian Diffusivity */
(PID.TID 0000.0001)                 0.000000000000000E+00
(PID.TID 0000.0001)     ;
(PID.TID 0000.0001) PTRACERS_diffK4 = /* Biharmonic Diffusivity */
(PID.TID 0000.0001)                 0.000000000000000E+00
(PID.TID 0000.0001)     ;
(PID.TID 0000.0001) PTRACERS_diffKrNr = /* Vertical Diffusivity */
(PID.TID 0000.0001)    35 @  1.000000000000000E-05              /* K =  1: 35 */
(PID.TID 0000.0001)     ;
(PID.TID 0000.0001) PTRACERS_useGMRedi = /* apply GM-Redi */
(PID.TID 0000.0001)                   F
(PID.TID 0000.0001)     ;
(PID.TID 0000.0001) PTRACERS_useKPP = /* apply KPP scheme */
(PID.TID 0000.0001)                   F
(PID.TID 0000.0001)     ;
(PID.TID 0000.0001) PTRACERS_ref = /* Reference vertical profile */
(PID.TID 0000.0001)    35 @  0.000000000000000E+00              /* K =  1: 35 */
(PID.TID 0000.0001)     ;
(PID.TID 0000.0001) PTRACERS_EvPrRn =/* tracer conc. in Evap. & Rain */
(PID.TID 0000.0001)                 1.234567000000000E+05
(PID.TID 0000.0001)     ;
(PID.TID 0000.0001)  -----------------------------------
(PID.TID 0000.0001)  tracer number :   90
(PID.TID 0000.0001) PTRACERS_ioLabel = /* tracer IO Label */
(PID.TID 0000.0001)               '90'
(PID.TID 0000.0001)     ;
(PID.TID 0000.0001) PTRACERS_advScheme = /* Advection Scheme */
(PID.TID 0000.0001)                      33
(PID.TID 0000.0001)     ;
(PID.TID 0000.0001) PTRACERS_ImplVertAdv = /* implicit vert. advection flag */
(PID.TID 0000.0001)                   F
(PID.TID 0000.0001)     ;
(PID.TID 0000.0001) PTRACERS_diffKh = /* Laplacian Diffusivity */
(PID.TID 0000.0001)                 0.000000000000000E+00
(PID.TID 0000.0001)     ;
(PID.TID 0000.0001) PTRACERS_diffK4 = /* Biharmonic Diffusivity */
(PID.TID 0000.0001)                 0.000000000000000E+00
(PID.TID 0000.0001)     ;
(PID.TID 0000.0001) PTRACERS_diffKrNr = /* Vertical Diffusivity */
(PID.TID 0000.0001)    35 @  1.000000000000000E-05              /* K =  1: 35 */
(PID.TID 0000.0001)     ;
(PID.TID 0000.0001) PTRACERS_useGMRedi = /* apply GM-Redi */
(PID.TID 0000.0001)                   F
(PID.TID 0000.0001)     ;
(PID.TID 0000.0001) PTRACERS_useKPP = /* apply KPP scheme */
(PID.TID 0000.0001)                   F
(PID.TID 0000.0001)     ;
(PID.TID 0000.0001) PTRACERS_ref = /* Reference vertical profile */
(PID.TID 0000.0001)    35 @  0.000000000000000E+00              /* K =  1: 35 */
(PID.TID 0000.0001)     ;
(PID.TID 0000.0001) PTRACERS_EvPrRn =/* tracer conc. in Evap. & Rain */
(PID.TID 0000.0001)                 1.234567000000000E+05
(PID.TID 0000.0001)     ;
(PID.TID 0000.0001)  -----------------------------------
(PID.TID 0000.0001)  tracer number :   91
(PID.TID 0000.0001) PTRACERS_ioLabel = /* tracer IO Label */
(PID.TID 0000.0001)               '91'
(PID.TID 0000.0001)     ;
(PID.TID 0000.0001) PTRACERS_advScheme = /* Advection Scheme */
(PID.TID 0000.0001)                      33
(PID.TID 0000.0001)     ;
(PID.TID 0000.0001) PTRACERS_ImplVertAdv = /* implicit vert. advection flag */
(PID.TID 0000.0001)                   F
(PID.TID 0000.0001)     ;
(PID.TID 0000.0001) PTRACERS_diffKh = /* Laplacian Diffusivity */
(PID.TID 0000.0001)                 0.000000000000000E+00
(PID.TID 0000.0001)     ;
(PID.TID 0000.0001) PTRACERS_diffK4 = /* Biharmonic Diffusivity */
(PID.TID 0000.0001)                 0.000000000000000E+00
(PID.TID 0000.0001)     ;
(PID.TID 0000.0001) PTRACERS_diffKrNr = /* Vertical Diffusivity */
(PID.TID 0000.0001)    35 @  1.000000000000000E-05              /* K =  1: 35 */
(PID.TID 0000.0001)     ;
(PID.TID 0000.0001) PTRACERS_useGMRedi = /* apply GM-Redi */
(PID.TID 0000.0001)                   F
(PID.TID 0000.0001)     ;
(PID.TID 0000.0001) PTRACERS_useKPP = /* apply KPP scheme */
(PID.TID 0000.0001)                   F
(PID.TID 0000.0001)     ;
(PID.TID 0000.0001) PTRACERS_ref = /* Reference vertical profile */
(PID.TID 0000.0001)    35 @  0.000000000000000E+00              /* K =  1: 35 */
(PID.TID 0000.0001)     ;
(PID.TID 0000.0001) PTRACERS_EvPrRn =/* tracer conc. in Evap. & Rain */
(PID.TID 0000.0001)                 1.234567000000000E+05
(PID.TID 0000.0001)     ;
(PID.TID 0000.0001)  -----------------------------------
(PID.TID 0000.0001)  tracer number :   92
(PID.TID 0000.0001) PTRACERS_ioLabel = /* tracer IO Label */
(PID.TID 0000.0001)               '92'
(PID.TID 0000.0001)     ;
(PID.TID 0000.0001) PTRACERS_advScheme = /* Advection Scheme */
(PID.TID 0000.0001)                      33
(PID.TID 0000.0001)     ;
(PID.TID 0000.0001) PTRACERS_ImplVertAdv = /* implicit vert. advection flag */
(PID.TID 0000.0001)                   F
(PID.TID 0000.0001)     ;
(PID.TID 0000.0001) PTRACERS_diffKh = /* Laplacian Diffusivity */
(PID.TID 0000.0001)                 0.000000000000000E+00
(PID.TID 0000.0001)     ;
(PID.TID 0000.0001) PTRACERS_diffK4 = /* Biharmonic Diffusivity */
(PID.TID 0000.0001)                 0.000000000000000E+00
(PID.TID 0000.0001)     ;
(PID.TID 0000.0001) PTRACERS_diffKrNr = /* Vertical Diffusivity */
(PID.TID 0000.0001)    35 @  1.000000000000000E-05              /* K =  1: 35 */
(PID.TID 0000.0001)     ;
(PID.TID 0000.0001) PTRACERS_useGMRedi = /* apply GM-Redi */
(PID.TID 0000.0001)                   F
(PID.TID 0000.0001)     ;
(PID.TID 0000.0001) PTRACERS_useKPP = /* apply KPP scheme */
(PID.TID 0000.0001)                   F
(PID.TID 0000.0001)     ;
(PID.TID 0000.0001) PTRACERS_ref = /* Reference vertical profile */
(PID.TID 0000.0001)    35 @  0.000000000000000E+00              /* K =  1: 35 */
(PID.TID 0000.0001)     ;
(PID.TID 0000.0001) PTRACERS_EvPrRn =/* tracer conc. in Evap. & Rain */
(PID.TID 0000.0001)                 1.234567000000000E+05
(PID.TID 0000.0001)     ;
(PID.TID 0000.0001)  -----------------------------------
(PID.TID 0000.0001)  tracer number :   93
(PID.TID 0000.0001) PTRACERS_ioLabel = /* tracer IO Label */
(PID.TID 0000.0001)               '93'
(PID.TID 0000.0001)     ;
(PID.TID 0000.0001) PTRACERS_advScheme = /* Advection Scheme */
(PID.TID 0000.0001)                      33
(PID.TID 0000.0001)     ;
(PID.TID 0000.0001) PTRACERS_ImplVertAdv = /* implicit vert. advection flag */
(PID.TID 0000.0001)                   F
(PID.TID 0000.0001)     ;
(PID.TID 0000.0001) PTRACERS_diffKh = /* Laplacian Diffusivity */
(PID.TID 0000.0001)                 0.000000000000000E+00
(PID.TID 0000.0001)     ;
(PID.TID 0000.0001) PTRACERS_diffK4 = /* Biharmonic Diffusivity */
(PID.TID 0000.0001)                 0.000000000000000E+00
(PID.TID 0000.0001)     ;
(PID.TID 0000.0001) PTRACERS_diffKrNr = /* Vertical Diffusivity */
(PID.TID 0000.0001)    35 @  1.000000000000000E-05              /* K =  1: 35 */
(PID.TID 0000.0001)     ;
(PID.TID 0000.0001) PTRACERS_useGMRedi = /* apply GM-Redi */
(PID.TID 0000.0001)                   F
(PID.TID 0000.0001)     ;
(PID.TID 0000.0001) PTRACERS_useKPP = /* apply KPP scheme */
(PID.TID 0000.0001)                   F
(PID.TID 0000.0001)     ;
(PID.TID 0000.0001) PTRACERS_ref = /* Reference vertical profile */
(PID.TID 0000.0001)    35 @  0.000000000000000E+00              /* K =  1: 35 */
(PID.TID 0000.0001)     ;
(PID.TID 0000.0001) PTRACERS_EvPrRn =/* tracer conc. in Evap. & Rain */
(PID.TID 0000.0001)                 1.234567000000000E+05
(PID.TID 0000.0001)     ;
(PID.TID 0000.0001)  -----------------------------------
(PID.TID 0000.0001)  tracer number :   94
(PID.TID 0000.0001) PTRACERS_ioLabel = /* tracer IO Label */
(PID.TID 0000.0001)               '94'
(PID.TID 0000.0001)     ;
(PID.TID 0000.0001) PTRACERS_advScheme = /* Advection Scheme */
(PID.TID 0000.0001)                      33
(PID.TID 0000.0001)     ;
(PID.TID 0000.0001) PTRACERS_ImplVertAdv = /* implicit vert. advection flag */
(PID.TID 0000.0001)                   F
(PID.TID 0000.0001)     ;
(PID.TID 0000.0001) PTRACERS_diffKh = /* Laplacian Diffusivity */
(PID.TID 0000.0001)                 0.000000000000000E+00
(PID.TID 0000.0001)     ;
(PID.TID 0000.0001) PTRACERS_diffK4 = /* Biharmonic Diffusivity */
(PID.TID 0000.0001)                 0.000000000000000E+00
(PID.TID 0000.0001)     ;
(PID.TID 0000.0001) PTRACERS_diffKrNr = /* Vertical Diffusivity */
(PID.TID 0000.0001)    35 @  1.000000000000000E-05              /* K =  1: 35 */
(PID.TID 0000.0001)     ;
(PID.TID 0000.0001) PTRACERS_useGMRedi = /* apply GM-Redi */
(PID.TID 0000.0001)                   F
(PID.TID 0000.0001)     ;
(PID.TID 0000.0001) PTRACERS_useKPP = /* apply KPP scheme */
(PID.TID 0000.0001)                   F
(PID.TID 0000.0001)     ;
(PID.TID 0000.0001) PTRACERS_ref = /* Reference vertical profile */
(PID.TID 0000.0001)    35 @  0.000000000000000E+00              /* K =  1: 35 */
(PID.TID 0000.0001)     ;
(PID.TID 0000.0001) PTRACERS_EvPrRn =/* tracer conc. in Evap. & Rain */
(PID.TID 0000.0001)                 1.234567000000000E+05
(PID.TID 0000.0001)     ;
(PID.TID 0000.0001)  -----------------------------------
(PID.TID 0000.0001)  tracer number :   95
(PID.TID 0000.0001) PTRACERS_ioLabel = /* tracer IO Label */
(PID.TID 0000.0001)               '95'
(PID.TID 0000.0001)     ;
(PID.TID 0000.0001) PTRACERS_advScheme = /* Advection Scheme */
(PID.TID 0000.0001)                      33
(PID.TID 0000.0001)     ;
(PID.TID 0000.0001) PTRACERS_ImplVertAdv = /* implicit vert. advection flag */
(PID.TID 0000.0001)                   F
(PID.TID 0000.0001)     ;
(PID.TID 0000.0001) PTRACERS_diffKh = /* Laplacian Diffusivity */
(PID.TID 0000.0001)                 0.000000000000000E+00
(PID.TID 0000.0001)     ;
(PID.TID 0000.0001) PTRACERS_diffK4 = /* Biharmonic Diffusivity */
(PID.TID 0000.0001)                 0.000000000000000E+00
(PID.TID 0000.0001)     ;
(PID.TID 0000.0001) PTRACERS_diffKrNr = /* Vertical Diffusivity */
(PID.TID 0000.0001)    35 @  1.000000000000000E-05              /* K =  1: 35 */
(PID.TID 0000.0001)     ;
(PID.TID 0000.0001) PTRACERS_useGMRedi = /* apply GM-Redi */
(PID.TID 0000.0001)                   F
(PID.TID 0000.0001)     ;
(PID.TID 0000.0001) PTRACERS_useKPP = /* apply KPP scheme */
(PID.TID 0000.0001)                   F
(PID.TID 0000.0001)     ;
(PID.TID 0000.0001) PTRACERS_ref = /* Reference vertical profile */
(PID.TID 0000.0001)    35 @  0.000000000000000E+00              /* K =  1: 35 */
(PID.TID 0000.0001)     ;
(PID.TID 0000.0001) PTRACERS_EvPrRn =/* tracer conc. in Evap. & Rain */
(PID.TID 0000.0001)                 1.234567000000000E+05
(PID.TID 0000.0001)     ;
(PID.TID 0000.0001)  -----------------------------------
(PID.TID 0000.0001)  tracer number :   96
(PID.TID 0000.0001) PTRACERS_ioLabel = /* tracer IO Label */
(PID.TID 0000.0001)               '96'
(PID.TID 0000.0001)     ;
(PID.TID 0000.0001) PTRACERS_advScheme = /* Advection Scheme */
(PID.TID 0000.0001)                      33
(PID.TID 0000.0001)     ;
(PID.TID 0000.0001) PTRACERS_ImplVertAdv = /* implicit vert. advection flag */
(PID.TID 0000.0001)                   F
(PID.TID 0000.0001)     ;
(PID.TID 0000.0001) PTRACERS_diffKh = /* Laplacian Diffusivity */
(PID.TID 0000.0001)                 0.000000000000000E+00
(PID.TID 0000.0001)     ;
(PID.TID 0000.0001) PTRACERS_diffK4 = /* Biharmonic Diffusivity */
(PID.TID 0000.0001)                 0.000000000000000E+00
(PID.TID 0000.0001)     ;
(PID.TID 0000.0001) PTRACERS_diffKrNr = /* Vertical Diffusivity */
(PID.TID 0000.0001)    35 @  1.000000000000000E-05              /* K =  1: 35 */
(PID.TID 0000.0001)     ;
(PID.TID 0000.0001) PTRACERS_useGMRedi = /* apply GM-Redi */
(PID.TID 0000.0001)                   F
(PID.TID 0000.0001)     ;
(PID.TID 0000.0001) PTRACERS_useKPP = /* apply KPP scheme */
(PID.TID 0000.0001)                   F
(PID.TID 0000.0001)     ;
(PID.TID 0000.0001) PTRACERS_ref = /* Reference vertical profile */
(PID.TID 0000.0001)    35 @  0.000000000000000E+00              /* K =  1: 35 */
(PID.TID 0000.0001)     ;
(PID.TID 0000.0001) PTRACERS_EvPrRn =/* tracer conc. in Evap. & Rain */
(PID.TID 0000.0001)                 1.234567000000000E+05
(PID.TID 0000.0001)     ;
(PID.TID 0000.0001)  -----------------------------------
(PID.TID 0000.0001)  tracer number :   97
(PID.TID 0000.0001) PTRACERS_ioLabel = /* tracer IO Label */
(PID.TID 0000.0001)               '97'
(PID.TID 0000.0001)     ;
(PID.TID 0000.0001) PTRACERS_advScheme = /* Advection Scheme */
(PID.TID 0000.0001)                      33
(PID.TID 0000.0001)     ;
(PID.TID 0000.0001) PTRACERS_ImplVertAdv = /* implicit vert. advection flag */
(PID.TID 0000.0001)                   F
(PID.TID 0000.0001)     ;
(PID.TID 0000.0001) PTRACERS_diffKh = /* Laplacian Diffusivity */
(PID.TID 0000.0001)                 0.000000000000000E+00
(PID.TID 0000.0001)     ;
(PID.TID 0000.0001) PTRACERS_diffK4 = /* Biharmonic Diffusivity */
(PID.TID 0000.0001)                 0.000000000000000E+00
(PID.TID 0000.0001)     ;
(PID.TID 0000.0001) PTRACERS_diffKrNr = /* Vertical Diffusivity */
(PID.TID 0000.0001)    35 @  1.000000000000000E-05              /* K =  1: 35 */
(PID.TID 0000.0001)     ;
(PID.TID 0000.0001) PTRACERS_useGMRedi = /* apply GM-Redi */
(PID.TID 0000.0001)                   F
(PID.TID 0000.0001)     ;
(PID.TID 0000.0001) PTRACERS_useKPP = /* apply KPP scheme */
(PID.TID 0000.0001)                   F
(PID.TID 0000.0001)     ;
(PID.TID 0000.0001) PTRACERS_ref = /* Reference vertical profile */
(PID.TID 0000.0001)    35 @  0.000000000000000E+00              /* K =  1: 35 */
(PID.TID 0000.0001)     ;
(PID.TID 0000.0001) PTRACERS_EvPrRn =/* tracer conc. in Evap. & Rain */
(PID.TID 0000.0001)                 1.234567000000000E+05
(PID.TID 0000.0001)     ;
(PID.TID 0000.0001)  -----------------------------------
(PID.TID 0000.0001)  tracer number :   98
(PID.TID 0000.0001) PTRACERS_ioLabel = /* tracer IO Label */
(PID.TID 0000.0001)               '98'
(PID.TID 0000.0001)     ;
(PID.TID 0000.0001) PTRACERS_advScheme = /* Advection Scheme */
(PID.TID 0000.0001)                      33
(PID.TID 0000.0001)     ;
(PID.TID 0000.0001) PTRACERS_ImplVertAdv = /* implicit vert. advection flag */
(PID.TID 0000.0001)                   F
(PID.TID 0000.0001)     ;
(PID.TID 0000.0001) PTRACERS_diffKh = /* Laplacian Diffusivity */
(PID.TID 0000.0001)                 0.000000000000000E+00
(PID.TID 0000.0001)     ;
(PID.TID 0000.0001) PTRACERS_diffK4 = /* Biharmonic Diffusivity */
(PID.TID 0000.0001)                 0.000000000000000E+00
(PID.TID 0000.0001)     ;
(PID.TID 0000.0001) PTRACERS_diffKrNr = /* Vertical Diffusivity */
(PID.TID 0000.0001)    35 @  1.000000000000000E-05              /* K =  1: 35 */
(PID.TID 0000.0001)     ;
(PID.TID 0000.0001) PTRACERS_useGMRedi = /* apply GM-Redi */
(PID.TID 0000.0001)                   F
(PID.TID 0000.0001)     ;
(PID.TID 0000.0001) PTRACERS_useKPP = /* apply KPP scheme */
(PID.TID 0000.0001)                   F
(PID.TID 0000.0001)     ;
(PID.TID 0000.0001) PTRACERS_ref = /* Reference vertical profile */
(PID.TID 0000.0001)    35 @  0.000000000000000E+00              /* K =  1: 35 */
(PID.TID 0000.0001)     ;
(PID.TID 0000.0001) PTRACERS_EvPrRn =/* tracer conc. in Evap. & Rain */
(PID.TID 0000.0001)                 1.234567000000000E+05
(PID.TID 0000.0001)     ;
(PID.TID 0000.0001)  -----------------------------------
(PID.TID 0000.0001)  tracer number :   99
(PID.TID 0000.0001) PTRACERS_ioLabel = /* tracer IO Label */
(PID.TID 0000.0001)               '99'
(PID.TID 0000.0001)     ;
(PID.TID 0000.0001) PTRACERS_advScheme = /* Advection Scheme */
(PID.TID 0000.0001)                      33
(PID.TID 0000.0001)     ;
(PID.TID 0000.0001) PTRACERS_ImplVertAdv = /* implicit vert. advection flag */
(PID.TID 0000.0001)                   F
(PID.TID 0000.0001)     ;
(PID.TID 0000.0001) PTRACERS_diffKh = /* Laplacian Diffusivity */
(PID.TID 0000.0001)                 0.000000000000000E+00
(PID.TID 0000.0001)     ;
(PID.TID 0000.0001) PTRACERS_diffK4 = /* Biharmonic Diffusivity */
(PID.TID 0000.0001)                 0.000000000000000E+00
(PID.TID 0000.0001)     ;
(PID.TID 0000.0001) PTRACERS_diffKrNr = /* Vertical Diffusivity */
(PID.TID 0000.0001)    35 @  1.000000000000000E-05              /* K =  1: 35 */
(PID.TID 0000.0001)     ;
(PID.TID 0000.0001) PTRACERS_useGMRedi = /* apply GM-Redi */
(PID.TID 0000.0001)                   F
(PID.TID 0000.0001)     ;
(PID.TID 0000.0001) PTRACERS_useKPP = /* apply KPP scheme */
(PID.TID 0000.0001)                   F
(PID.TID 0000.0001)     ;
(PID.TID 0000.0001) PTRACERS_ref = /* Reference vertical profile */
(PID.TID 0000.0001)    35 @  0.000000000000000E+00              /* K =  1: 35 */
(PID.TID 0000.0001)     ;
(PID.TID 0000.0001) PTRACERS_EvPrRn =/* tracer conc. in Evap. & Rain */
(PID.TID 0000.0001)                 1.234567000000000E+05
(PID.TID 0000.0001)     ;
(PID.TID 0000.0001)  -----------------------------------
(PID.TID 0000.0001)  GCHEM_READPARMS: opening data.gchem
(PID.TID 0000.0001)  OPEN_COPY_DATA_FILE: opening file data.gchem
(PID.TID 0000.0001) // =======================================================
(PID.TID 0000.0001) // Parameter file "data.gchem"
(PID.TID 0000.0001) // =======================================================
(PID.TID 0000.0001) > &GCHEM_PARM01
(PID.TID 0000.0001) >  useDARWIN=.TRUE.,
(PID.TID 0000.0001) >  nsubtime=1,
(PID.TID 0000.0001) > /
(PID.TID 0000.0001) 
(PID.TID 0000.0001)  GCHEM_READPARMS: finished reading data.gchem
(PID.TID 0000.0001)  DARWIN_READPARMS: opening data.darwin
(PID.TID 0000.0001)  OPEN_COPY_DATA_FILE: opening file data.darwin
(PID.TID 0000.0001) // =======================================================
(PID.TID 0000.0001) // Parameter file "data.darwin"
(PID.TID 0000.0001) // =======================================================
(PID.TID 0000.0001) > &DARWIN_FORCING
(PID.TID 0000.0001) > darwin_ironFile='input/loc1_FeFlux_monsurf.bin',
(PID.TID 0000.0001) > darwin_PARFile='input/loc1_PAR_monsurf.bin',
(PID.TID 0000.0001) > darwin_seed=11231,
(PID.TID 0000.0001) > /
(PID.TID 0000.0001) 
(PID.TID 0000.0001)  DARWIN_READPARMS: finished reading data.darwin
(PID.TID 0000.0001) SET_PARMS: done
(PID.TID 0000.0001) Enter INI_VERTICAL_GRID: setInterFDr=    T ; setCenterDr=    F
(PID.TID 0000.0001) %MON XC_max                       =   3.3550000000000E+02
(PID.TID 0000.0001) %MON XC_min                       =   3.3550000000000E+02
(PID.TID 0000.0001) %MON XC_mean                      =   3.3550000000000E+02
(PID.TID 0000.0001) %MON XC_sd                        =   0.0000000000000E+00
(PID.TID 0000.0001) %MON XG_max                       =   3.3500000000000E+02
(PID.TID 0000.0001) %MON XG_min                       =   3.3500000000000E+02
(PID.TID 0000.0001) %MON XG_mean                      =   3.3500000000000E+02
(PID.TID 0000.0001) %MON XG_sd                        =   0.0000000000000E+00
(PID.TID 0000.0001) %MON DXC_max                      =   1.0603184087720E+05
(PID.TID 0000.0001) %MON DXC_min                      =   1.0603184087720E+05
(PID.TID 0000.0001) %MON DXC_mean                     =   1.0603184087720E+05
(PID.TID 0000.0001) %MON DXC_sd                       =   0.0000000000000E+00
(PID.TID 0000.0001) %MON DXF_max                      =   1.0603184087720E+05
(PID.TID 0000.0001) %MON DXF_min                      =   1.0603184087720E+05
(PID.TID 0000.0001) %MON DXF_mean                     =   1.0603184087720E+05
(PID.TID 0000.0001) %MON DXF_sd                       =   0.0000000000000E+00
(PID.TID 0000.0001) %MON DXG_max                      =   1.0573606049669E+05
(PID.TID 0000.0001) %MON DXG_min                      =   1.0573606049669E+05
(PID.TID 0000.0001) %MON DXG_mean                     =   1.0573606049669E+05
(PID.TID 0000.0001) %MON DXG_sd                       =   0.0000000000000E+00
(PID.TID 0000.0001) %MON DXV_max                      =   1.0573606049669E+05
(PID.TID 0000.0001) %MON DXV_min                      =   1.0573606049669E+05
(PID.TID 0000.0001) %MON DXV_mean                     =   1.0573606049669E+05
(PID.TID 0000.0001) %MON DXV_sd                       =   0.0000000000000E+00
(PID.TID 0000.0001) %MON YC_max                       =  -1.7500000000000E+01
(PID.TID 0000.0001) %MON YC_min                       =  -1.7500000000000E+01
(PID.TID 0000.0001) %MON YC_mean                      =  -1.7500000000000E+01
(PID.TID 0000.0001) %MON YC_sd                        =   0.0000000000000E+00
(PID.TID 0000.0001) %MON YG_max                       =  -1.8000000000000E+01
(PID.TID 0000.0001) %MON YG_min                       =  -1.8000000000000E+01
(PID.TID 0000.0001) %MON YG_mean                      =  -1.8000000000000E+01
(PID.TID 0000.0001) %MON YG_sd                        =   0.0000000000000E+00
(PID.TID 0000.0001) %MON DYC_max                      =   1.1117747335204E+05
(PID.TID 0000.0001) %MON DYC_min                      =   1.1117747335204E+05
(PID.TID 0000.0001) %MON DYC_mean                     =   1.1117747335204E+05
(PID.TID 0000.0001) %MON DYC_sd                       =   0.0000000000000E+00
(PID.TID 0000.0001) %MON DYF_max                      =   1.1117747335204E+05
(PID.TID 0000.0001) %MON DYF_min                      =   1.1117747335204E+05
(PID.TID 0000.0001) %MON DYF_mean                     =   1.1117747335204E+05
(PID.TID 0000.0001) %MON DYF_sd                       =   0.0000000000000E+00
(PID.TID 0000.0001) %MON DYG_max                      =   1.1117747335204E+05
(PID.TID 0000.0001) %MON DYG_min                      =   1.1117747335204E+05
(PID.TID 0000.0001) %MON DYG_mean                     =   1.1117747335204E+05
(PID.TID 0000.0001) %MON DYG_sd                       =   0.0000000000000E+00
(PID.TID 0000.0001) %MON DYU_max                      =   1.1117747335204E+05
(PID.TID 0000.0001) %MON DYU_min                      =   1.1117747335204E+05
(PID.TID 0000.0001) %MON DYU_mean                     =   1.1117747335204E+05
(PID.TID 0000.0001) %MON DYU_sd                       =   0.0000000000000E+00
(PID.TID 0000.0001) %MON RA_max                       =   1.1788202541770E+10
(PID.TID 0000.0001) %MON RA_min                       =   1.1788202541770E+10
(PID.TID 0000.0001) %MON RA_mean                      =   1.1788202541770E+10
(PID.TID 0000.0001) %MON RA_sd                        =   0.0000000000000E+00
(PID.TID 0000.0001) %MON RAW_max                      =   1.1788202541770E+10
(PID.TID 0000.0001) %MON RAW_min                      =   1.1788202541770E+10
(PID.TID 0000.0001) %MON RAW_mean                     =   1.1788202541770E+10
(PID.TID 0000.0001) %MON RAW_sd                       =   0.0000000000000E+00
(PID.TID 0000.0001) %MON RAS_max                      =   1.1755318843774E+10
(PID.TID 0000.0001) %MON RAS_min                      =   1.1755318843774E+10
(PID.TID 0000.0001) %MON RAS_mean                     =   1.1755318843774E+10
(PID.TID 0000.0001) %MON RAS_sd                       =   0.0000000000000E+00
(PID.TID 0000.0001) %MON RAZ_max                      =   1.1755318843774E+10
(PID.TID 0000.0001) %MON RAZ_min                      =   1.1755318843774E+10
(PID.TID 0000.0001) %MON RAZ_mean                     =   1.1755318843774E+10
(PID.TID 0000.0001) %MON RAZ_sd                       =   0.0000000000000E+00
(PID.TID 0000.0001) %MON AngleCS_max                  =   1.0000000000000E+00
(PID.TID 0000.0001) %MON AngleCS_min                  =   1.0000000000000E+00
(PID.TID 0000.0001) %MON AngleCS_mean                 =   1.0000000000000E+00
(PID.TID 0000.0001) %MON AngleCS_sd                   =   0.0000000000000E+00
(PID.TID 0000.0001) %MON AngleSN_max                  =   0.0000000000000E+00
(PID.TID 0000.0001) %MON AngleSN_min                  =   0.0000000000000E+00
(PID.TID 0000.0001) %MON AngleSN_mean                 =   0.0000000000000E+00
(PID.TID 0000.0001) %MON AngleSN_sd                   =   0.0000000000000E+00
(PID.TID 0000.0001)  MDS_READ_FIELD: opening global file: input/bathyneg.bin
(PID.TID 0000.0001) // =======================================================
(PID.TID 0000.0001) // Field Model R_low (ini_masks_etc) at iteration          1
(PID.TID 0000.0001) // CMIN =         -3.495000000000000E+03
(PID.TID 0000.0001) // CMAX =         -3.495000000000000E+03
(PID.TID 0000.0001) // CINT =          0.000000000000000E+00
(PID.TID 0000.0001) // SYMBOLS (CMIN->CMAX): -abcdefghijklmnopqrstuvwxyz+
(PID.TID 0000.0001) //                  0.0: .
(PID.TID 0000.0001) // RANGE I (Lo:Hi:Step):(  -1:   3:   1)
(PID.TID 0000.0001) // RANGE J (Lo:Hi:Step):(   3:  -1:  -1)
(PID.TID 0000.0001) // RANGE K (Lo:Hi:Step):(   1:   1:   1)
(PID.TID 0000.0001) // =======================================================
(PID.TID 0000.0001) // =======================================================
(PID.TID 0000.0001) // END OF FIELD                                          =
(PID.TID 0000.0001) // =======================================================
(PID.TID 0000.0001) 
(PID.TID 0000.0001) // =======================================================
(PID.TID 0000.0001) // Field Model Ro_surf (ini_masks_etc) at iteration          1
(PID.TID 0000.0001) // CMIN =          1.000000000000000E+32
(PID.TID 0000.0001) // CMAX =         -1.000000000000000E+32
(PID.TID 0000.0001) // CINT =          0.000000000000000E+00
(PID.TID 0000.0001) // SYMBOLS (CMIN->CMAX): -abcdefghijklmnopqrstuvwxyz+
(PID.TID 0000.0001) //                  0.0: .
(PID.TID 0000.0001) // RANGE I (Lo:Hi:Step):(  -1:   3:   1)
(PID.TID 0000.0001) // RANGE J (Lo:Hi:Step):(   3:  -1:  -1)
(PID.TID 0000.0001) // RANGE K (Lo:Hi:Step):(   1:   1:   1)
(PID.TID 0000.0001) // =======================================================
(PID.TID 0000.0001) // =======================================================
(PID.TID 0000.0001) // END OF FIELD                                          =
(PID.TID 0000.0001) // =======================================================
(PID.TID 0000.0001) 
(PID.TID 0000.0001) // =======================================================
(PID.TID 0000.0001) // Field hFacC at iteration          1
(PID.TID 0000.0001) // CMIN =          1.000000000000000E+00
(PID.TID 0000.0001) // CMAX =          1.000000000000000E+00
(PID.TID 0000.0001) // CINT =          0.000000000000000E+00
(PID.TID 0000.0001) // SYMBOLS (CMIN->CMAX): -abcdefghijklmnopqrstuvwxyz+
(PID.TID 0000.0001) //                  0.0: .
(PID.TID 0000.0001) // RANGE I (Lo:Hi:Step):(  -1:   3:   1)
(PID.TID 0000.0001) // RANGE J (Lo:Hi:Step):(   3:  -1:  -1)
(PID.TID 0000.0001) // RANGE K (Lo:Hi:Step):(   1:   1:   1)
(PID.TID 0000.0001) // =======================================================
(PID.TID 0000.0001) // =======================================================
(PID.TID 0000.0001) // END OF FIELD                                          =
(PID.TID 0000.0001) // =======================================================
(PID.TID 0000.0001) 
(PID.TID 0000.0001) // =======================================================
(PID.TID 0000.0001) // Field hFacW at iteration          1
(PID.TID 0000.0001) // CMIN =          1.000000000000000E+00
(PID.TID 0000.0001) // CMAX =          1.000000000000000E+00
(PID.TID 0000.0001) // CINT =          0.000000000000000E+00
(PID.TID 0000.0001) // SYMBOLS (CMIN->CMAX): -abcdefghijklmnopqrstuvwxyz+
(PID.TID 0000.0001) //                  0.0: .
(PID.TID 0000.0001) // RANGE I (Lo:Hi:Step):(  -1:   3:   1)
(PID.TID 0000.0001) // RANGE J (Lo:Hi:Step):(   3:  -1:  -1)
(PID.TID 0000.0001) // RANGE K (Lo:Hi:Step):(   1:   1:   1)
(PID.TID 0000.0001) // =======================================================
(PID.TID 0000.0001) // =======================================================
(PID.TID 0000.0001) // END OF FIELD                                          =
(PID.TID 0000.0001) // =======================================================
(PID.TID 0000.0001) 
(PID.TID 0000.0001) // =======================================================
(PID.TID 0000.0001) // Field hFacS at iteration          1
(PID.TID 0000.0001) // CMIN =          1.000000000000000E+00
(PID.TID 0000.0001) // CMAX =          1.000000000000000E+00
(PID.TID 0000.0001) // CINT =          0.000000000000000E+00
(PID.TID 0000.0001) // SYMBOLS (CMIN->CMAX): -abcdefghijklmnopqrstuvwxyz+
(PID.TID 0000.0001) //                  0.0: .
(PID.TID 0000.0001) // RANGE I (Lo:Hi:Step):(  -1:   3:   1)
(PID.TID 0000.0001) // RANGE J (Lo:Hi:Step):(   3:  -1:  -1)
(PID.TID 0000.0001) // RANGE K (Lo:Hi:Step):(   1:   1:   1)
(PID.TID 0000.0001) // =======================================================
(PID.TID 0000.0001) // =======================================================
(PID.TID 0000.0001) // END OF FIELD                                          =
(PID.TID 0000.0001) // =======================================================
(PID.TID 0000.0001) 
(PID.TID 0000.0001) 
(PID.TID 0000.0001) // ===================================
(PID.TID 0000.0001) // GAD parameters :
(PID.TID 0000.0001) // ===================================
(PID.TID 0000.0001) tempAdvScheme =   /* Temp. Horiz.Advection scheme selector */
(PID.TID 0000.0001)                       3
(PID.TID 0000.0001)     ;
(PID.TID 0000.0001) tempVertAdvScheme =   /* Temp. Vert. Advection scheme selector */
(PID.TID 0000.0001)                       3
(PID.TID 0000.0001)     ;
(PID.TID 0000.0001) tempMultiDimAdvec =   /* use Muti-Dim Advec method for Temp */
(PID.TID 0000.0001)                   F
(PID.TID 0000.0001)     ;
(PID.TID 0000.0001) tempSOM_Advection = /* use 2nd Order Moment Advection for Temp */
(PID.TID 0000.0001)                   F
(PID.TID 0000.0001)     ;
(PID.TID 0000.0001) AdamsBashforthGt = /* apply Adams-Bashforth extrapolation on Gt */
(PID.TID 0000.0001)                   T
(PID.TID 0000.0001)     ;
(PID.TID 0000.0001) AdamsBashforth_T = /* apply Adams-Bashforth extrapolation on Temp */
(PID.TID 0000.0001)                   F
(PID.TID 0000.0001)     ;
(PID.TID 0000.0001) saltAdvScheme =   /* Salt. Horiz.advection scheme selector */
(PID.TID 0000.0001)                       3
(PID.TID 0000.0001)     ;
(PID.TID 0000.0001) saltVertAdvScheme =   /* Salt. Vert. Advection scheme selector */
(PID.TID 0000.0001)                       3
(PID.TID 0000.0001)     ;
(PID.TID 0000.0001) saltMultiDimAdvec =   /* use Muti-Dim Advec method for Salt */
(PID.TID 0000.0001)                   F
(PID.TID 0000.0001)     ;
(PID.TID 0000.0001) saltSOM_Advection = /* use 2nd Order Moment Advection for Salt */
(PID.TID 0000.0001)                   F
(PID.TID 0000.0001)     ;
(PID.TID 0000.0001) AdamsBashforthGs = /* apply Adams-Bashforth extrapolation on Gs */
(PID.TID 0000.0001)                   F
(PID.TID 0000.0001)     ;
(PID.TID 0000.0001) AdamsBashforth_S = /* apply Adams-Bashforth extrapolation on Salt */
(PID.TID 0000.0001)                   F
(PID.TID 0000.0001)     ;
(PID.TID 0000.0001) // ===================================
(PID.TID 0000.0001) PTRACERS_INIT_FIXED: PTRACERS_SOM_Advection(   1) =     F
(PID.TID 0000.0001) PTRACERS_INIT_FIXED: PTRACERS_SOM_Advection(   2) =     F
(PID.TID 0000.0001) PTRACERS_INIT_FIXED: PTRACERS_SOM_Advection(   3) =     F
(PID.TID 0000.0001) PTRACERS_INIT_FIXED: PTRACERS_SOM_Advection(   4) =     F
(PID.TID 0000.0001) PTRACERS_INIT_FIXED: PTRACERS_SOM_Advection(   5) =     F
(PID.TID 0000.0001) PTRACERS_INIT_FIXED: PTRACERS_SOM_Advection(   6) =     F
(PID.TID 0000.0001) PTRACERS_INIT_FIXED: PTRACERS_SOM_Advection(   7) =     F
(PID.TID 0000.0001) PTRACERS_INIT_FIXED: PTRACERS_SOM_Advection(   8) =     F
(PID.TID 0000.0001) PTRACERS_INIT_FIXED: PTRACERS_SOM_Advection(   9) =     F
(PID.TID 0000.0001) PTRACERS_INIT_FIXED: PTRACERS_SOM_Advection(  10) =     F
(PID.TID 0000.0001) PTRACERS_INIT_FIXED: PTRACERS_SOM_Advection(  11) =     F
(PID.TID 0000.0001) PTRACERS_INIT_FIXED: PTRACERS_SOM_Advection(  12) =     F
(PID.TID 0000.0001) PTRACERS_INIT_FIXED: PTRACERS_SOM_Advection(  13) =     F
(PID.TID 0000.0001) PTRACERS_INIT_FIXED: PTRACERS_SOM_Advection(  14) =     F
(PID.TID 0000.0001) PTRACERS_INIT_FIXED: PTRACERS_SOM_Advection(  15) =     F
(PID.TID 0000.0001) PTRACERS_INIT_FIXED: PTRACERS_SOM_Advection(  16) =     F
(PID.TID 0000.0001) PTRACERS_INIT_FIXED: PTRACERS_SOM_Advection(  17) =     F
(PID.TID 0000.0001) PTRACERS_INIT_FIXED: PTRACERS_SOM_Advection(  18) =     F
(PID.TID 0000.0001) PTRACERS_INIT_FIXED: PTRACERS_SOM_Advection(  19) =     F
(PID.TID 0000.0001) PTRACERS_INIT_FIXED: PTRACERS_SOM_Advection(  20) =     F
(PID.TID 0000.0001) PTRACERS_INIT_FIXED: PTRACERS_SOM_Advection(  21) =     F
(PID.TID 0000.0001) PTRACERS_INIT_FIXED: PTRACERS_SOM_Advection(  22) =     F
(PID.TID 0000.0001) PTRACERS_INIT_FIXED: PTRACERS_SOM_Advection(  23) =     F
(PID.TID 0000.0001) PTRACERS_INIT_FIXED: PTRACERS_SOM_Advection(  24) =     F
(PID.TID 0000.0001) PTRACERS_INIT_FIXED: PTRACERS_SOM_Advection(  25) =     F
(PID.TID 0000.0001) PTRACERS_INIT_FIXED: PTRACERS_SOM_Advection(  26) =     F
(PID.TID 0000.0001) PTRACERS_INIT_FIXED: PTRACERS_SOM_Advection(  27) =     F
(PID.TID 0000.0001) PTRACERS_INIT_FIXED: PTRACERS_SOM_Advection(  28) =     F
(PID.TID 0000.0001) PTRACERS_INIT_FIXED: PTRACERS_SOM_Advection(  29) =     F
(PID.TID 0000.0001) PTRACERS_INIT_FIXED: PTRACERS_SOM_Advection(  30) =     F
(PID.TID 0000.0001) PTRACERS_INIT_FIXED: PTRACERS_SOM_Advection(  31) =     F
(PID.TID 0000.0001) PTRACERS_INIT_FIXED: PTRACERS_SOM_Advection(  32) =     F
(PID.TID 0000.0001) PTRACERS_INIT_FIXED: PTRACERS_SOM_Advection(  33) =     F
(PID.TID 0000.0001) PTRACERS_INIT_FIXED: PTRACERS_SOM_Advection(  34) =     F
(PID.TID 0000.0001) PTRACERS_INIT_FIXED: PTRACERS_SOM_Advection(  35) =     F
(PID.TID 0000.0001) PTRACERS_INIT_FIXED: PTRACERS_SOM_Advection(  36) =     F
(PID.TID 0000.0001) PTRACERS_INIT_FIXED: PTRACERS_SOM_Advection(  37) =     F
(PID.TID 0000.0001) PTRACERS_INIT_FIXED: PTRACERS_SOM_Advection(  38) =     F
(PID.TID 0000.0001) PTRACERS_INIT_FIXED: PTRACERS_SOM_Advection(  39) =     F
(PID.TID 0000.0001) PTRACERS_INIT_FIXED: PTRACERS_SOM_Advection(  40) =     F
(PID.TID 0000.0001) PTRACERS_INIT_FIXED: PTRACERS_SOM_Advection(  41) =     F
(PID.TID 0000.0001) PTRACERS_INIT_FIXED: PTRACERS_SOM_Advection(  42) =     F
(PID.TID 0000.0001) PTRACERS_INIT_FIXED: PTRACERS_SOM_Advection(  43) =     F
(PID.TID 0000.0001) PTRACERS_INIT_FIXED: PTRACERS_SOM_Advection(  44) =     F
(PID.TID 0000.0001) PTRACERS_INIT_FIXED: PTRACERS_SOM_Advection(  45) =     F
(PID.TID 0000.0001) PTRACERS_INIT_FIXED: PTRACERS_SOM_Advection(  46) =     F
(PID.TID 0000.0001) PTRACERS_INIT_FIXED: PTRACERS_SOM_Advection(  47) =     F
(PID.TID 0000.0001) PTRACERS_INIT_FIXED: PTRACERS_SOM_Advection(  48) =     F
(PID.TID 0000.0001) PTRACERS_INIT_FIXED: PTRACERS_SOM_Advection(  49) =     F
(PID.TID 0000.0001) PTRACERS_INIT_FIXED: PTRACERS_SOM_Advection(  50) =     F
(PID.TID 0000.0001) PTRACERS_INIT_FIXED: PTRACERS_SOM_Advection(  51) =     F
(PID.TID 0000.0001) PTRACERS_INIT_FIXED: PTRACERS_SOM_Advection(  52) =     F
(PID.TID 0000.0001) PTRACERS_INIT_FIXED: PTRACERS_SOM_Advection(  53) =     F
(PID.TID 0000.0001) PTRACERS_INIT_FIXED: PTRACERS_SOM_Advection(  54) =     F
(PID.TID 0000.0001) PTRACERS_INIT_FIXED: PTRACERS_SOM_Advection(  55) =     F
(PID.TID 0000.0001) PTRACERS_INIT_FIXED: PTRACERS_SOM_Advection(  56) =     F
(PID.TID 0000.0001) PTRACERS_INIT_FIXED: PTRACERS_SOM_Advection(  57) =     F
(PID.TID 0000.0001) PTRACERS_INIT_FIXED: PTRACERS_SOM_Advection(  58) =     F
(PID.TID 0000.0001) PTRACERS_INIT_FIXED: PTRACERS_SOM_Advection(  59) =     F
(PID.TID 0000.0001) PTRACERS_INIT_FIXED: PTRACERS_SOM_Advection(  60) =     F
(PID.TID 0000.0001) PTRACERS_INIT_FIXED: PTRACERS_SOM_Advection(  61) =     F
(PID.TID 0000.0001) PTRACERS_INIT_FIXED: PTRACERS_SOM_Advection(  62) =     F
(PID.TID 0000.0001) PTRACERS_INIT_FIXED: PTRACERS_SOM_Advection(  63) =     F
(PID.TID 0000.0001) PTRACERS_INIT_FIXED: PTRACERS_SOM_Advection(  64) =     F
(PID.TID 0000.0001) PTRACERS_INIT_FIXED: PTRACERS_SOM_Advection(  65) =     F
(PID.TID 0000.0001) PTRACERS_INIT_FIXED: PTRACERS_SOM_Advection(  66) =     F
(PID.TID 0000.0001) PTRACERS_INIT_FIXED: PTRACERS_SOM_Advection(  67) =     F
(PID.TID 0000.0001) PTRACERS_INIT_FIXED: PTRACERS_SOM_Advection(  68) =     F
(PID.TID 0000.0001) PTRACERS_INIT_FIXED: PTRACERS_SOM_Advection(  69) =     F
(PID.TID 0000.0001) PTRACERS_INIT_FIXED: PTRACERS_SOM_Advection(  70) =     F
(PID.TID 0000.0001) PTRACERS_INIT_FIXED: PTRACERS_SOM_Advection(  71) =     F
(PID.TID 0000.0001) PTRACERS_INIT_FIXED: PTRACERS_SOM_Advection(  72) =     F
(PID.TID 0000.0001) PTRACERS_INIT_FIXED: PTRACERS_SOM_Advection(  73) =     F
(PID.TID 0000.0001) PTRACERS_INIT_FIXED: PTRACERS_SOM_Advection(  74) =     F
(PID.TID 0000.0001) PTRACERS_INIT_FIXED: PTRACERS_SOM_Advection(  75) =     F
(PID.TID 0000.0001) PTRACERS_INIT_FIXED: PTRACERS_SOM_Advection(  76) =     F
(PID.TID 0000.0001) PTRACERS_INIT_FIXED: PTRACERS_SOM_Advection(  77) =     F
(PID.TID 0000.0001) PTRACERS_INIT_FIXED: PTRACERS_SOM_Advection(  78) =     F
(PID.TID 0000.0001) PTRACERS_INIT_FIXED: PTRACERS_SOM_Advection(  79) =     F
(PID.TID 0000.0001) PTRACERS_INIT_FIXED: PTRACERS_SOM_Advection(  80) =     F
(PID.TID 0000.0001) PTRACERS_INIT_FIXED: PTRACERS_SOM_Advection(  81) =     F
(PID.TID 0000.0001) PTRACERS_INIT_FIXED: PTRACERS_SOM_Advection(  82) =     F
(PID.TID 0000.0001) PTRACERS_INIT_FIXED: PTRACERS_SOM_Advection(  83) =     F
(PID.TID 0000.0001) PTRACERS_INIT_FIXED: PTRACERS_SOM_Advection(  84) =     F
(PID.TID 0000.0001) PTRACERS_INIT_FIXED: PTRACERS_SOM_Advection(  85) =     F
(PID.TID 0000.0001) PTRACERS_INIT_FIXED: PTRACERS_SOM_Advection(  86) =     F
(PID.TID 0000.0001) PTRACERS_INIT_FIXED: PTRACERS_SOM_Advection(  87) =     F
(PID.TID 0000.0001) PTRACERS_INIT_FIXED: PTRACERS_SOM_Advection(  88) =     F
(PID.TID 0000.0001) PTRACERS_INIT_FIXED: PTRACERS_SOM_Advection(  89) =     F
(PID.TID 0000.0001) PTRACERS_INIT_FIXED: PTRACERS_SOM_Advection(  90) =     F
(PID.TID 0000.0001) PTRACERS_INIT_FIXED: PTRACERS_SOM_Advection(  91) =     F
(PID.TID 0000.0001) PTRACERS_INIT_FIXED: PTRACERS_SOM_Advection(  92) =     F
(PID.TID 0000.0001) PTRACERS_INIT_FIXED: PTRACERS_SOM_Advection(  93) =     F
(PID.TID 0000.0001) PTRACERS_INIT_FIXED: PTRACERS_SOM_Advection(  94) =     F
(PID.TID 0000.0001) PTRACERS_INIT_FIXED: PTRACERS_SOM_Advection(  95) =     F
(PID.TID 0000.0001) PTRACERS_INIT_FIXED: PTRACERS_SOM_Advection(  96) =     F
(PID.TID 0000.0001) PTRACERS_INIT_FIXED: PTRACERS_SOM_Advection(  97) =     F
(PID.TID 0000.0001) PTRACERS_INIT_FIXED: PTRACERS_SOM_Advection(  98) =     F
(PID.TID 0000.0001) PTRACERS_INIT_FIXED: PTRACERS_SOM_Advection(  99) =     F
(PID.TID 0000.0001) // =======================================================
(PID.TID 0000.0001) // Darwin loading parameters
(PID.TID 0000.0001) // =======================================================
(PID.TID 0000.0001) %MON fCori_max                    =  -4.3855676645210E-05
(PID.TID 0000.0001) %MON fCori_min                    =  -4.3855676645210E-05
(PID.TID 0000.0001) %MON fCori_mean                   =  -4.3855676645210E-05
(PID.TID 0000.0001) %MON fCori_sd                     =   0.0000000000000E+00
(PID.TID 0000.0001) %MON fCoriG_max                   =  -4.5067801836625E-05
(PID.TID 0000.0001) %MON fCoriG_min                   =  -4.5067801836625E-05
(PID.TID 0000.0001) %MON fCoriG_mean                  =  -4.5067801836625E-05
(PID.TID 0000.0001) %MON fCoriG_sd                    =   0.0000000000000E+00
(PID.TID 0000.0001) %MON fCoriCos_max                 =   1.3909243610207E-04
(PID.TID 0000.0001) %MON fCoriCos_min                 =   1.3909243610207E-04
(PID.TID 0000.0001) %MON fCoriCos_mean                =   1.3909243610207E-04
(PID.TID 0000.0001) %MON fCoriCos_sd                  =   0.0000000000000E+00
(PID.TID 0000.0001) INI_CG2D: CG2D normalisation factor =  2.7288038648017932E-04
(PID.TID 0000.0001) 
(PID.TID 0000.0001) // =======================================================
(PID.TID 0000.0001) // Model configuration
(PID.TID 0000.0001) // =======================================================
(PID.TID 0000.0001) //
(PID.TID 0000.0001) // "Physical" paramters ( PARM01 in namelist )
(PID.TID 0000.0001) //
(PID.TID 0000.0001) buoyancyRelation = /* Type of relation to get Buoyancy */
(PID.TID 0000.0001)               'OCEANIC'
(PID.TID 0000.0001)     ;
(PID.TID 0000.0001) fluidIsAir  =  /* fluid major constituent is Air */
(PID.TID 0000.0001)                   F
(PID.TID 0000.0001)     ;
(PID.TID 0000.0001) fluidIsWater=  /* fluid major constituent is Water */
(PID.TID 0000.0001)                   T
(PID.TID 0000.0001)     ;
(PID.TID 0000.0001) usingPCoords =  /* use p (or p*) vertical coordinate */
(PID.TID 0000.0001)                   F
(PID.TID 0000.0001)     ;
(PID.TID 0000.0001) usingZCoords =  /* use z (or z*) vertical coordinate */
(PID.TID 0000.0001)                   T
(PID.TID 0000.0001)     ;
(PID.TID 0000.0001) tRef =   /* Reference temperature profile ( oC or K ) */
(PID.TID 0000.0001)                 2.650000000000000E+01,      /* K =  1 */
(PID.TID 0000.0001)                 2.610000000000000E+01,      /* K =  2 */
(PID.TID 0000.0001)                 2.600000000000000E+01,      /* K =  3 */
(PID.TID 0000.0001)                 2.550000000000000E+01,      /* K =  4 */
(PID.TID 0000.0001)                 2.540000000000000E+01,      /* K =  5 */
(PID.TID 0000.0001)                 2.490000000000000E+01,      /* K =  6 */
(PID.TID 0000.0001)                 2.450000000000000E+01,      /* K =  7 */
(PID.TID 0000.0001)                 2.400000000000000E+01,      /* K =  8 */
(PID.TID 0000.0001)                 2.370000000000000E+01,      /* K =  9 */
(PID.TID 0000.0001)                 2.330000000000000E+01,      /* K = 10 */
(PID.TID 0000.0001)                 2.310000000000000E+01,      /* K = 11 */
(PID.TID 0000.0001)                 2.280000000000000E+01,      /* K = 12 */
(PID.TID 0000.0001)                 2.250000000000000E+01,      /* K = 13 */
(PID.TID 0000.0001)                 2.210000000000000E+01,      /* K = 14 */
(PID.TID 0000.0001)                 2.160000000000000E+01,      /* K = 15 */
(PID.TID 0000.0001)                 2.060000000000000E+01,      /* K = 16 */
(PID.TID 0000.0001)                 1.950000000000000E+01,      /* K = 17 */
(PID.TID 0000.0001)                 1.840000000000000E+01,      /* K = 18 */
(PID.TID 0000.0001)                 1.730000000000000E+01,      /* K = 19 */
(PID.TID 0000.0001)                 1.660000000000000E+01,      /* K = 20 */
(PID.TID 0000.0001)                 1.550000000000000E+01,      /* K = 21 */
(PID.TID 0000.0001)                 1.460000000000000E+01,      /* K = 22 */
(PID.TID 0000.0001)                 1.380000000000000E+01,      /* K = 23 */
(PID.TID 0000.0001)                 1.310000000000000E+01,      /* K = 24 */
(PID.TID 0000.0001)                 1.160000000000000E+01,      /* K = 25 */
(PID.TID 0000.0001)                 1.010000000000000E+01,      /* K = 26 */
(PID.TID 0000.0001)                 7.700000000000000E+00,      /* K = 27 */
(PID.TID 0000.0001)                 5.300000000000000E+00,      /* K = 28 */
(PID.TID 0000.0001)                 4.100000000000000E+00,      /* K = 29 */
(PID.TID 0000.0001)     2 @  3.700000000000000E+00,             /* K = 30: 31 */
(PID.TID 0000.0001)                 3.400000000000000E+00,      /* K = 32 */
(PID.TID 0000.0001)                 3.000000000000000E+00,      /* K = 33 */
(PID.TID 0000.0001)                 2.800000000000000E+00,      /* K = 34 */
(PID.TID 0000.0001)                 2.600000000000000E+00       /* K = 35 */
(PID.TID 0000.0001)     ;
(PID.TID 0000.0001) sRef =   /* Reference salinity profile ( psu ) */
(PID.TID 0000.0001)    35 @  3.500000000000000E+01              /* K =  1: 35 */
(PID.TID 0000.0001)     ;
(PID.TID 0000.0001) viscAh =   /* Lateral eddy viscosity ( m^2/s ) */
(PID.TID 0000.0001)                 0.000000000000000E+00
(PID.TID 0000.0001)     ;
(PID.TID 0000.0001) viscAhMax =   /* Maximum lateral eddy viscosity ( m^2/s ) */
(PID.TID 0000.0001)                 1.000000000000000E+21
(PID.TID 0000.0001)     ;
(PID.TID 0000.0001) viscAhGrid =   /* Grid dependent lateral eddy viscosity ( non-dim. ) */
(PID.TID 0000.0001)                 0.000000000000000E+00
(PID.TID 0000.0001)     ;
(PID.TID 0000.0001) useFullLeith =   /* Use Full Form of Leith Viscosity on/off flag*/
(PID.TID 0000.0001)                   F
(PID.TID 0000.0001)     ;
(PID.TID 0000.0001) useStrainTensionVisc =   /* Use StrainTension Form of Viscous Operator on/off flag*/
(PID.TID 0000.0001)                   F
(PID.TID 0000.0001)     ;
(PID.TID 0000.0001) useAreaViscLength =   /* Use area for visc length instead of geom. mean*/
(PID.TID 0000.0001)                   F
(PID.TID 0000.0001)     ;
(PID.TID 0000.0001) viscC2leith = /* Leith harmonic visc. factor (on grad(vort),non-dim.) */
(PID.TID 0000.0001)                 0.000000000000000E+00
(PID.TID 0000.0001)     ;
(PID.TID 0000.0001) viscC2leithD = /* Leith harmonic viscosity factor (on grad(div),non-dim.) */
(PID.TID 0000.0001)                 0.000000000000000E+00
(PID.TID 0000.0001)     ;
(PID.TID 0000.0001) viscC2smag =   /* Smagorinsky harmonic viscosity factor (non-dim.) */
(PID.TID 0000.0001)                 0.000000000000000E+00
(PID.TID 0000.0001)     ;
(PID.TID 0000.0001) viscA4 =   /* Lateral biharmonic viscosity ( m^4/s ) */
(PID.TID 0000.0001)                 0.000000000000000E+00
(PID.TID 0000.0001)     ;
(PID.TID 0000.0001) viscA4Max =   /* Maximum biharmonic viscosity ( m^2/s ) */
(PID.TID 0000.0001)                 1.000000000000000E+21
(PID.TID 0000.0001)     ;
(PID.TID 0000.0001) viscA4Grid =   /* Grid dependent biharmonic viscosity ( non-dim. ) */
(PID.TID 0000.0001)                 0.000000000000000E+00
(PID.TID 0000.0001)     ;
(PID.TID 0000.0001) viscC4leith = /* Leith biharm viscosity factor (on grad(vort), non-dim.) */
(PID.TID 0000.0001)                 0.000000000000000E+00
(PID.TID 0000.0001)     ;
(PID.TID 0000.0001) viscC4leithD = /* Leith biharm viscosity factor (on grad(div), non-dim.) */
(PID.TID 0000.0001)                 0.000000000000000E+00
(PID.TID 0000.0001)     ;
(PID.TID 0000.0001) viscC4Smag = /* Smagorinsky biharm viscosity factor (non-dim) */
(PID.TID 0000.0001)                 0.000000000000000E+00
(PID.TID 0000.0001)     ;
(PID.TID 0000.0001) no_slip_sides =  /* Viscous BCs: No-slip sides */
(PID.TID 0000.0001)                   F
(PID.TID 0000.0001)     ;
(PID.TID 0000.0001) sideDragFactor = /* side-drag scaling factor (non-dim) */
(PID.TID 0000.0001)                 2.000000000000000E+00
(PID.TID 0000.0001)     ;
(PID.TID 0000.0001) viscAr =   /* Vertical eddy viscosity ( m^2/s ) */
(PID.TID 0000.0001)                 0.000000000000000E+00
(PID.TID 0000.0001)     ;
(PID.TID 0000.0001) no_slip_bottom =  /* Viscous BCs: No-slip bottom */
(PID.TID 0000.0001)                   T
(PID.TID 0000.0001)     ;
(PID.TID 0000.0001) bottomDragLinear = /* linear bottom-drag coefficient ( m/s ) */
(PID.TID 0000.0001)                 0.000000000000000E+00
(PID.TID 0000.0001)     ;
(PID.TID 0000.0001) bottomDragQuadratic = /* quadratic bottom-drag coeff. ( m/m ) */
(PID.TID 0000.0001)                 0.000000000000000E+00
(PID.TID 0000.0001)     ;
(PID.TID 0000.0001) diffKhT =   /* Laplacian diffusion of heat laterally ( m^2/s ) */
(PID.TID 0000.0001)                 1.000000000000000E+02
(PID.TID 0000.0001)     ;
(PID.TID 0000.0001) diffK4T =   /* Biharmonic diffusion of heat laterally ( m^4/s ) */
(PID.TID 0000.0001)                 0.000000000000000E+00
(PID.TID 0000.0001)     ;
(PID.TID 0000.0001) diffKhS =   /* Laplacian diffusion of salt laterally ( m^2/s ) */
(PID.TID 0000.0001)                 0.000000000000000E+00
(PID.TID 0000.0001)     ;
(PID.TID 0000.0001) diffK4S =   /* Biharmonic diffusion of salt laterally ( m^4/s ) */
(PID.TID 0000.0001)                 0.000000000000000E+00
(PID.TID 0000.0001)     ;
(PID.TID 0000.0001) diffKrNrT = /* vertical profile of vertical diffusion of Temp ( m^2/s )*/
(PID.TID 0000.0001)    35 @  1.000000000000000E-04              /* K =  1: 35 */
(PID.TID 0000.0001)     ;
(PID.TID 0000.0001) diffKrNrS = /* vertical profile of vertical diffusion of Salt ( m^2/s )*/
(PID.TID 0000.0001)    35 @  0.000000000000000E+00              /* K =  1: 35 */
(PID.TID 0000.0001)     ;
(PID.TID 0000.0001) diffKrBL79surf = /* Surface diffusion for Bryan and Lewis 79 ( m^2/s ) */
(PID.TID 0000.0001)                 0.000000000000000E+00
(PID.TID 0000.0001)     ;
(PID.TID 0000.0001) diffKrBL79deep = /* Deep diffusion for Bryan and Lewis 1979 ( m^2/s ) */
(PID.TID 0000.0001)                 0.000000000000000E+00
(PID.TID 0000.0001)     ;
(PID.TID 0000.0001) diffKrBL79scl = /* Depth scale for Bryan and Lewis 1979 ( m ) */
(PID.TID 0000.0001)                 2.000000000000000E+02
(PID.TID 0000.0001)     ;
(PID.TID 0000.0001) diffKrBL79Ho = /* Turning depth for Bryan and Lewis 1979 ( m ) */
(PID.TID 0000.0001)                -2.000000000000000E+03
(PID.TID 0000.0001)     ;
(PID.TID 0000.0001) ivdc_kappa = /* Implicit Vertical Diffusivity for Convection ( m^2/s ) */
(PID.TID 0000.0001)                 0.000000000000000E+00
(PID.TID 0000.0001)     ;
(PID.TID 0000.0001) hMixCriteria=  /* Criteria for mixed-layer diagnostic */
(PID.TID 0000.0001)                -8.000000000000000E-01
(PID.TID 0000.0001)     ;
(PID.TID 0000.0001) eosType =  /* Type of Equation of State */
(PID.TID 0000.0001)               'JMD95Z'
(PID.TID 0000.0001)     ;
(PID.TID 0000.0001) tAlpha =   /* Linear EOS thermal expansion coefficient ( 1/oC ) */
(PID.TID 0000.0001)                 2.000000000000000E-04
(PID.TID 0000.0001)     ;
(PID.TID 0000.0001) sBeta =   /* Linear EOS haline contraction coefficient ( 1/psu ) */
(PID.TID 0000.0001)                 7.400000000000000E-04
(PID.TID 0000.0001)     ;
(PID.TID 0000.0001) rhonil =   /* Reference density ( kg/m^3 ) */
(PID.TID 0000.0001)                 9.998000000000000E+02
(PID.TID 0000.0001)     ;
(PID.TID 0000.0001) rhoConst =   /* Reference density ( kg/m^3 ) */
(PID.TID 0000.0001)                 9.998000000000000E+02
(PID.TID 0000.0001)     ;
(PID.TID 0000.0001) rhoFacC = /* normalized Reference density @ cell-Center (-) */
(PID.TID 0000.0001)    35 @  1.000000000000000E+00              /* K =  1: 35 */
(PID.TID 0000.0001)     ;
(PID.TID 0000.0001) rhoFacF = /* normalized Reference density @ W-Interface (-) */
(PID.TID 0000.0001)    36 @  1.000000000000000E+00              /* K =  1: 36 */
(PID.TID 0000.0001)     ;
(PID.TID 0000.0001) rhoConstFresh =   /* Reference density ( kg/m^3 ) */
(PID.TID 0000.0001)                 9.998000000000000E+02
(PID.TID 0000.0001)     ;
(PID.TID 0000.0001) gravity =   /* Gravitational acceleration ( m/s^2 ) */
(PID.TID 0000.0001)                 9.810000000000000E+00
(PID.TID 0000.0001)     ;
(PID.TID 0000.0001) gBaro =   /* Barotropic gravity ( m/s^2 ) */
(PID.TID 0000.0001)                 9.810000000000000E+00
(PID.TID 0000.0001)     ;
(PID.TID 0000.0001) rotationPeriod =   /* Rotation Period ( s ) */
(PID.TID 0000.0001)                 8.616400000000000E+04
(PID.TID 0000.0001)     ;
(PID.TID 0000.0001) omega =   /* Angular velocity ( rad/s ) */
(PID.TID 0000.0001)                 7.292123516990375E-05
(PID.TID 0000.0001)     ;
(PID.TID 0000.0001) f0 =   /* Reference coriolis parameter ( 1/s ) */
(PID.TID 0000.0001)                 1.000000000000000E-04
(PID.TID 0000.0001)     ;
(PID.TID 0000.0001) beta =   /* Beta ( 1/(m.s) ) */
(PID.TID 0000.0001)                 9.999999999999999E-12
(PID.TID 0000.0001)     ;
(PID.TID 0000.0001) freeSurfFac =   /* Implicit free surface factor */
(PID.TID 0000.0001)                 0.000000000000000E+00
(PID.TID 0000.0001)     ;
(PID.TID 0000.0001) implicitFreeSurface =   /* Implicit free surface on/off flag */
(PID.TID 0000.0001)                   F
(PID.TID 0000.0001)     ;
(PID.TID 0000.0001) rigidLid =   /* Rigid lid on/off flag */
(PID.TID 0000.0001)                   T
(PID.TID 0000.0001)     ;
(PID.TID 0000.0001) implicSurfPress =   /* Surface Pressure implicit factor (0-1)*/
(PID.TID 0000.0001)                 1.000000000000000E+00
(PID.TID 0000.0001)     ;
(PID.TID 0000.0001) implicDiv2Dflow =   /* Barot. Flow Div. implicit factor (0-1)*/
(PID.TID 0000.0001)                 1.000000000000000E+00
(PID.TID 0000.0001)     ;
(PID.TID 0000.0001) exactConserv =   /* Exact Volume Conservation on/off flag*/
(PID.TID 0000.0001)                   F
(PID.TID 0000.0001)     ;
(PID.TID 0000.0001) linFSConserveTr =   /* Tracer correction for Lin Free Surface on/off flag*/
(PID.TID 0000.0001)                   F
(PID.TID 0000.0001)     ;
(PID.TID 0000.0001) uniformLin_PhiSurf =   /* use uniform Bo_surf on/off flag*/
(PID.TID 0000.0001)                   T
(PID.TID 0000.0001)     ;
(PID.TID 0000.0001) nonlinFreeSurf =   /* Non-linear Free Surf. options (-1,0,1,2,3)*/
(PID.TID 0000.0001)                       0
(PID.TID 0000.0001)     ;
(PID.TID 0000.0001)      -1,0= Off ; 1,2,3= On, 2=+rescale gU,gV, 3=+update cg2d solv.
(PID.TID 0000.0001) hFacInf =   /* lower threshold for hFac (nonlinFreeSurf only)*/
(PID.TID 0000.0001)                 2.000000000000000E-01
(PID.TID 0000.0001)     ;
(PID.TID 0000.0001) hFacSup =   /* upper threshold for hFac (nonlinFreeSurf only)*/
(PID.TID 0000.0001)                 2.000000000000000E+00
(PID.TID 0000.0001)     ;
(PID.TID 0000.0001) select_rStar = /* r* Vertical coord. options (=0 r coord.; > 0 uses r*) */
(PID.TID 0000.0001)                       0
(PID.TID 0000.0001)     ;
(PID.TID 0000.0001) useRealFreshWaterFlux =   /* Real Fresh Water Flux on/off flag*/
(PID.TID 0000.0001)                   F
(PID.TID 0000.0001)     ;
(PID.TID 0000.0001) convertFW2Salt = /* convert F.W. Flux to Salt Flux (-1=use local S)(ppt)*/
(PID.TID 0000.0001)                 3.500000000000000E+01
(PID.TID 0000.0001)     ;
(PID.TID 0000.0001) use3Dsolver = /* use 3-D pressure solver on/off flag */
(PID.TID 0000.0001)                   F
(PID.TID 0000.0001)     ;
(PID.TID 0000.0001) nonHydrostatic =  /* Non-Hydrostatic on/off flag */
(PID.TID 0000.0001)                   F
(PID.TID 0000.0001)     ;
(PID.TID 0000.0001) nh_Am2 = /* Non-Hydrostatic terms scaling factor */
(PID.TID 0000.0001)                 1.000000000000000E+00
(PID.TID 0000.0001)     ;
(PID.TID 0000.0001) quasiHydrostatic = /* Quasi-Hydrostatic on/off flag */
(PID.TID 0000.0001)                   F
(PID.TID 0000.0001)     ;
(PID.TID 0000.0001) momStepping =  /* Momentum equation on/off flag */
(PID.TID 0000.0001)                   F
(PID.TID 0000.0001)     ;
(PID.TID 0000.0001) vectorInvariantMomentum= /* Vector-Invariant Momentum on/off */
(PID.TID 0000.0001)                   F
(PID.TID 0000.0001)     ;
(PID.TID 0000.0001) momAdvection =  /* Momentum advection on/off flag */
(PID.TID 0000.0001)                   F
(PID.TID 0000.0001)     ;
(PID.TID 0000.0001) momViscosity =  /* Momentum viscosity on/off flag */
(PID.TID 0000.0001)                   F
(PID.TID 0000.0001)     ;
(PID.TID 0000.0001) momImplVertAdv =/* Momentum implicit vert. advection on/off*/
(PID.TID 0000.0001)                   F
(PID.TID 0000.0001)     ;
(PID.TID 0000.0001) implicitViscosity = /* Implicit viscosity on/off flag */
(PID.TID 0000.0001)                   F
(PID.TID 0000.0001)     ;
(PID.TID 0000.0001) metricTerms =  /* metric-Terms on/off flag */
(PID.TID 0000.0001)                   T
(PID.TID 0000.0001)     ;
(PID.TID 0000.0001) useNHMTerms = /* Non-Hydrostatic Metric-Terms on/off */
(PID.TID 0000.0001)                   F
(PID.TID 0000.0001)     ;
(PID.TID 0000.0001) useConstantF =  /* use Constant f0 Coriolis flag */
(PID.TID 0000.0001)                   F
(PID.TID 0000.0001)     ;
(PID.TID 0000.0001) useBetaPlaneF = /* use Beta-Plane Coriolis flag */
(PID.TID 0000.0001)                   F
(PID.TID 0000.0001)     ;
(PID.TID 0000.0001) useSphereF  =   /* use Spherical Coriolis flag */
(PID.TID 0000.0001)                   T
(PID.TID 0000.0001)     ;
(PID.TID 0000.0001) use3dCoriolis = /* 3-D Coriolis on/off flag */
(PID.TID 0000.0001)                   F
(PID.TID 0000.0001)     ;
(PID.TID 0000.0001) useCoriolis =  /* Coriolis on/off flag */
(PID.TID 0000.0001)                   F
(PID.TID 0000.0001)     ;
(PID.TID 0000.0001) useCDscheme =  /* CD scheme on/off flag */
(PID.TID 0000.0001)                   F
(PID.TID 0000.0001)     ;
(PID.TID 0000.0001) useJamartWetPoints= /* Coriolis WetPoints method flag */
(PID.TID 0000.0001)                   F
(PID.TID 0000.0001)     ;
(PID.TID 0000.0001) useJamartMomAdv= /* V.I. Non-linear terms Jamart flag */
(PID.TID 0000.0001)                   F
(PID.TID 0000.0001)     ;
(PID.TID 0000.0001) useAbsVorticity= /* Work with f+zeta in Coriolis */
(PID.TID 0000.0001)                   F
(PID.TID 0000.0001)     ;
(PID.TID 0000.0001) selectVortScheme= /* Scheme selector for Vorticity-Term */
(PID.TID 0000.0001)               123456789
(PID.TID 0000.0001)    = 0 : enstrophy (Shallow-Water Eq.) conserving scheme by Sadourny, JAS 75
(PID.TID 0000.0001)    = 1 : same as 0 with modified hFac
(PID.TID 0000.0001)    = 2 : energy conserving scheme (used by Sadourny in JAS 75 paper)
(PID.TID 0000.0001)    = 3 : energy (general) and enstrophy (2D, nonDiv.) conserving scheme
(PID.TID 0000.0001)          from Sadourny (Burridge & Haseler, ECMWF Rep.4, 1977)
(PID.TID 0000.0001)     ;
(PID.TID 0000.0001) upwindVorticity= /* Upwind bias vorticity flag */
(PID.TID 0000.0001)                   F
(PID.TID 0000.0001)     ;
(PID.TID 0000.0001) highOrderVorticity= /* High order interp. of vort. flag */
(PID.TID 0000.0001)                   F
(PID.TID 0000.0001)     ;
(PID.TID 0000.0001) upwindShear= /* Upwind vertical Shear advection flag */
(PID.TID 0000.0001)                   F
(PID.TID 0000.0001)     ;
(PID.TID 0000.0001) selectKEscheme= /* Kinetic Energy scheme selector */
(PID.TID 0000.0001)                       0
(PID.TID 0000.0001)     ;
(PID.TID 0000.0001) momForcing =  /* Momentum forcing on/off flag */
(PID.TID 0000.0001)                   F
(PID.TID 0000.0001)     ;
(PID.TID 0000.0001) momPressureForcing =  /* Momentum pressure term on/off flag */
(PID.TID 0000.0001)                   F
(PID.TID 0000.0001)     ;
(PID.TID 0000.0001) implicitIntGravWave= /* Implicit Internal Gravity Wave flag */
(PID.TID 0000.0001)                   F
(PID.TID 0000.0001)     ;
(PID.TID 0000.0001) staggerTimeStep =   /* Stagger time stepping on/off flag */
(PID.TID 0000.0001)                   F
(PID.TID 0000.0001)     ;
(PID.TID 0000.0001) multiDimAdvection =   /* enable/disable Multi-Dim Advection */
(PID.TID 0000.0001)                   T
(PID.TID 0000.0001)     ;
(PID.TID 0000.0001) useMultiDimAdvec =   /* Multi-Dim Advection is/is-not used */
(PID.TID 0000.0001)                   T
(PID.TID 0000.0001)     ;
(PID.TID 0000.0001) implicitDiffusion =/* Implicit Diffusion on/off flag */
(PID.TID 0000.0001)                   T
(PID.TID 0000.0001)     ;
(PID.TID 0000.0001) tempStepping =  /* Temperature equation on/off flag */
(PID.TID 0000.0001)                   T
(PID.TID 0000.0001)     ;
(PID.TID 0000.0001) tempAdvection=  /* Temperature advection on/off flag */
(PID.TID 0000.0001)                   T
(PID.TID 0000.0001)     ;
(PID.TID 0000.0001) tempImplVertAdv =/* Temp. implicit vert. advection on/off */
(PID.TID 0000.0001)                   F
(PID.TID 0000.0001)     ;
(PID.TID 0000.0001) tempForcing  =  /* Temperature forcing on/off flag */
(PID.TID 0000.0001)                   T
(PID.TID 0000.0001)     ;
(PID.TID 0000.0001) tempIsActiveTr = /* Temp. is a dynamically Active Tracer */
(PID.TID 0000.0001)                   F
(PID.TID 0000.0001)     ;
(PID.TID 0000.0001) saltStepping =  /* Salinity equation on/off flag */
(PID.TID 0000.0001)                   F
(PID.TID 0000.0001)     ;
(PID.TID 0000.0001) saltAdvection=  /* Salinity advection on/off flag */
(PID.TID 0000.0001)                   F
(PID.TID 0000.0001)     ;
(PID.TID 0000.0001) saltImplVertAdv =/* Sali. implicit vert. advection on/off */
(PID.TID 0000.0001)                   F
(PID.TID 0000.0001)     ;
(PID.TID 0000.0001) saltForcing  =  /* Salinity forcing on/off flag */
(PID.TID 0000.0001)                   F
(PID.TID 0000.0001)     ;
(PID.TID 0000.0001) saltIsActiveTr = /* Salt  is a dynamically Active Tracer */
(PID.TID 0000.0001)                   F
(PID.TID 0000.0001)     ;
(PID.TID 0000.0001)  readBinaryPrec = /* Precision used for reading binary files */
(PID.TID 0000.0001)                      32
(PID.TID 0000.0001)     ;
(PID.TID 0000.0001) writeBinaryPrec = /* Precision used for writing binary files */
(PID.TID 0000.0001)                      32
(PID.TID 0000.0001)     ;
(PID.TID 0000.0001)  globalFiles = /* write "global" (=not per tile) files */
(PID.TID 0000.0001)                   F
(PID.TID 0000.0001)     ;
(PID.TID 0000.0001)  useSingleCpuIO = /* only master MPI process does I/O */
(PID.TID 0000.0001)                   T
(PID.TID 0000.0001)     ;
(PID.TID 0000.0001)  debugMode  =  /* Debug Mode on/off flag */
(PID.TID 0000.0001)                   F
(PID.TID 0000.0001)     ;
(PID.TID 0000.0001)    debLevA  =  /* 1rst level of debugging */
(PID.TID 0000.0001)                       1
(PID.TID 0000.0001)     ;
(PID.TID 0000.0001)    debLevB  =  /* 2nd  level of debugging */
(PID.TID 0000.0001)                       2
(PID.TID 0000.0001)     ;
(PID.TID 0000.0001)  debugLevel =  /* select debugging level */
(PID.TID 0000.0001)                       1
(PID.TID 0000.0001)     ;
(PID.TID 0000.0001) //
(PID.TID 0000.0001) // Elliptic solver(s) paramters ( PARM02 in namelist )
(PID.TID 0000.0001) //
(PID.TID 0000.0001) cg2dMaxIters =   /* Upper limit on 2d con. grad iterations  */
(PID.TID 0000.0001)                     300
(PID.TID 0000.0001)     ;
(PID.TID 0000.0001) cg2dChkResFreq =   /* 2d con. grad convergence test frequency */
(PID.TID 0000.0001)                       1
(PID.TID 0000.0001)     ;
(PID.TID 0000.0001) cg2dTargetResidual =   /* 2d con. grad target residual  */
(PID.TID 0000.0001)                 1.000000000000000E-07
(PID.TID 0000.0001)     ;
(PID.TID 0000.0001) cg2dTargetResWunit =   /* CG2d target residual [W units] */
(PID.TID 0000.0001)                -1.000000000000000E+00
(PID.TID 0000.0001)     ;
(PID.TID 0000.0001) cg2dPreCondFreq =   /* Freq. for updating cg2d preconditioner */
(PID.TID 0000.0001)                       1
(PID.TID 0000.0001)     ;
(PID.TID 0000.0001) //
(PID.TID 0000.0001) // Time stepping paramters ( PARM03 in namelist )
(PID.TID 0000.0001) //
(PID.TID 0000.0001) deltaTmom =   /* Momentum equation timestep ( s ) */
(PID.TID 0000.0001)                 3.600000000000000E+03
(PID.TID 0000.0001)     ;
(PID.TID 0000.0001) deltaTfreesurf =   /* FreeSurface equation timestep ( s ) */
(PID.TID 0000.0001)                 3.600000000000000E+03
(PID.TID 0000.0001)     ;
(PID.TID 0000.0001) dTtracerLev =   /* Tracer equation timestep ( s ) */
(PID.TID 0000.0001)    35 @  3.600000000000000E+03              /* K =  1: 35 */
(PID.TID 0000.0001)     ;
(PID.TID 0000.0001) deltaTClock  =   /* Model clock timestep ( s ) */
(PID.TID 0000.0001)                 3.600000000000000E+03
(PID.TID 0000.0001)     ;
(PID.TID 0000.0001) cAdjFreq =   /* Convective adjustment interval ( s ) */
(PID.TID 0000.0001)                 3.600000000000000E+03
(PID.TID 0000.0001)     ;
(PID.TID 0000.0001) momForcingOutAB = /* =1: take Momentum Forcing out of Adams-Bash. stepping */
(PID.TID 0000.0001)                       0
(PID.TID 0000.0001)     ;
(PID.TID 0000.0001) tracForcingOutAB = /* =1: take T,S,pTr Forcing out of Adams-Bash. stepping */
(PID.TID 0000.0001)                       0
(PID.TID 0000.0001)     ;
(PID.TID 0000.0001) momDissip_In_AB = /* put Dissipation Tendency in Adams-Bash. stepping */
(PID.TID 0000.0001)                   T
(PID.TID 0000.0001)     ;
(PID.TID 0000.0001) doAB_onGtGs = /* apply AB on Tendencies (rather than on T,S)*/
(PID.TID 0000.0001)                   T
(PID.TID 0000.0001)     ;
(PID.TID 0000.0001) abEps =   /* Adams-Bashforth-2 stabilizing weight */
(PID.TID 0000.0001)                 1.000000000000000E-01
(PID.TID 0000.0001)     ;
(PID.TID 0000.0001) pickupStrictlyMatch= /* stop if pickup do not strictly match */
(PID.TID 0000.0001)                   T
(PID.TID 0000.0001)     ;
(PID.TID 0000.0001) nIter0 =   /* Run starting timestep number  */
(PID.TID 0000.0001)                       0
(PID.TID 0000.0001)     ;
(PID.TID 0000.0001) nTimeSteps =   /* Number of timesteps */
(PID.TID 0000.0001)                       4
(PID.TID 0000.0001)     ;
(PID.TID 0000.0001) baseTime =   /* Model base time ( s ). */
(PID.TID 0000.0001)                 0.000000000000000E+00
(PID.TID 0000.0001)     ;
(PID.TID 0000.0001) startTime =   /* Run start time ( s ). */
(PID.TID 0000.0001)                 0.000000000000000E+00
(PID.TID 0000.0001)     ;
(PID.TID 0000.0001) endTime =   /* Integration ending time ( s ). */
(PID.TID 0000.0001)                 1.440000000000000E+04
(PID.TID 0000.0001)     ;
(PID.TID 0000.0001) pChkPtFreq =   /* Permanent restart/checkpoint file interval ( s ). */
(PID.TID 0000.0001)                 3.110400000000000E+07
(PID.TID 0000.0001)     ;
(PID.TID 0000.0001) chkPtFreq =   /* Rolling restart/checkpoint file interval ( s ). */
(PID.TID 0000.0001)                 3.110400000000000E+07
(PID.TID 0000.0001)     ;
(PID.TID 0000.0001) pickup_write_mdsio =   /* Model IO flag. */
(PID.TID 0000.0001)                   T
(PID.TID 0000.0001)     ;
(PID.TID 0000.0001) pickup_read_mdsio =   /* Model IO flag. */
(PID.TID 0000.0001)                   T
(PID.TID 0000.0001)     ;
(PID.TID 0000.0001) pickup_write_mnc =   /* Model IO flag. */
(PID.TID 0000.0001)                   F
(PID.TID 0000.0001)     ;
(PID.TID 0000.0001) pickup_read_mnc =   /* Model IO flag. */
(PID.TID 0000.0001)                   F
(PID.TID 0000.0001)     ;
(PID.TID 0000.0001) pickup_write_immed =   /* Model IO flag. */
(PID.TID 0000.0001)                   F
(PID.TID 0000.0001)     ;
(PID.TID 0000.0001) writePickupAtEnd =   /* Model IO flag. */
(PID.TID 0000.0001)                   T
(PID.TID 0000.0001)     ;
(PID.TID 0000.0001) dumpFreq =   /* Model state write out interval ( s ). */
(PID.TID 0000.0001)                 3.110400000000000E+07
(PID.TID 0000.0001)     ;
(PID.TID 0000.0001) dumpInitAndLast= /* write out Initial & Last iter. model state */
(PID.TID 0000.0001)                   T
(PID.TID 0000.0001)     ;
(PID.TID 0000.0001) snapshot_mdsio =   /* Model IO flag. */
(PID.TID 0000.0001)                   F
(PID.TID 0000.0001)     ;
(PID.TID 0000.0001) snapshot_mnc =   /* Model IO flag. */
(PID.TID 0000.0001)                   T
(PID.TID 0000.0001)     ;
(PID.TID 0000.0001) monitorFreq =   /* Monitor output interval ( s ). */
(PID.TID 0000.0001)                 1.000000000000000E+00
(PID.TID 0000.0001)     ;
(PID.TID 0000.0001) monitorSelect = /* select group of variables to monitor */
(PID.TID 0000.0001)                       3
(PID.TID 0000.0001)     ;
(PID.TID 0000.0001) monitor_stdio =   /* Model IO flag. */
(PID.TID 0000.0001)                   T
(PID.TID 0000.0001)     ;
(PID.TID 0000.0001) monitor_mnc =   /* Model IO flag. */
(PID.TID 0000.0001)                   F
(PID.TID 0000.0001)     ;
(PID.TID 0000.0001) externForcingPeriod =   /* forcing period (s) */
(PID.TID 0000.0001)                 2.592000000000000E+06
(PID.TID 0000.0001)     ;
(PID.TID 0000.0001) externForcingCycle =   /* period of the cyle (s). */
(PID.TID 0000.0001)                 3.110400000000000E+07
(PID.TID 0000.0001)     ;
(PID.TID 0000.0001) tauThetaClimRelax =   /* relaxation time scale (s) */
(PID.TID 0000.0001)                 2.592000000000000E+05
(PID.TID 0000.0001)     ;
(PID.TID 0000.0001) tauSaltClimRelax =   /* relaxation time scale (s) */
(PID.TID 0000.0001)                 0.000000000000000E+00
(PID.TID 0000.0001)     ;
(PID.TID 0000.0001) latBandClimRelax =   /* max. Lat. where relaxation */
(PID.TID 0000.0001)                 1.800000000000000E+02
(PID.TID 0000.0001)     ;
(PID.TID 0000.0001) //
(PID.TID 0000.0001) // Gridding paramters ( PARM04 in namelist )
(PID.TID 0000.0001) //
(PID.TID 0000.0001) usingCartesianGrid = /* Cartesian coordinates flag ( True/False ) */
(PID.TID 0000.0001)                   F
(PID.TID 0000.0001)     ;
(PID.TID 0000.0001) usingCylindricalGrid = /* Cylindrical coordinates flag ( True/False ) */
(PID.TID 0000.0001)                   F
(PID.TID 0000.0001)     ;
(PID.TID 0000.0001) usingSphericalPolarGrid = /* Spherical coordinates flag ( True/False ) */
(PID.TID 0000.0001)                   T
(PID.TID 0000.0001)     ;
(PID.TID 0000.0001) usingCurvilinearGrid = /* Curvilinear coordinates flag ( True/False ) */
(PID.TID 0000.0001)                   F
(PID.TID 0000.0001)     ;
(PID.TID 0000.0001) Ro_SeaLevel = /* r(1) ( units of r ==  m ) */
(PID.TID 0000.0001)                 0.000000000000000E+00
(PID.TID 0000.0001)     ;
(PID.TID 0000.0001) rkSign =   /* index orientation relative to vertical coordinate */
(PID.TID 0000.0001)                -1.000000000000000E+00
(PID.TID 0000.0001)     ;
(PID.TID 0000.0001) gravitySign = /* gravity orientation relative to vertical coordinate */
(PID.TID 0000.0001)                -1.000000000000000E+00
(PID.TID 0000.0001)     ;
(PID.TID 0000.0001) mass2rUnit = /* convert mass per unit area [kg/m2] to r-units [m] */
(PID.TID 0000.0001)                 1.000200040008002E-03
(PID.TID 0000.0001)     ;
(PID.TID 0000.0001) rUnit2mass = /* convert r-units [m] to mass per unit area [kg/m2] */
(PID.TID 0000.0001)                 9.998000000000000E+02
(PID.TID 0000.0001)     ;
(PID.TID 0000.0001) drC =   /* C spacing ( units of r ) */
(PID.TID 0000.0001)                 5.000000000000000E+00,      /* K =  1 */
(PID.TID 0000.0001)    13 @  1.000000000000000E+01,             /* K =  2: 14 */
(PID.TID 0000.0001)                 1.250000000000000E+01,      /* K = 15 */
(PID.TID 0000.0001)     4 @  1.500000000000000E+01,             /* K = 16: 19 */
(PID.TID 0000.0001)                 1.750000000000000E+01,      /* K = 20 */
(PID.TID 0000.0001)     3 @  2.000000000000000E+01,             /* K = 21: 23 */
(PID.TID 0000.0001)                 3.500000000000000E+01,      /* K = 24 */
(PID.TID 0000.0001)                 5.000000000000000E+01,      /* K = 25 */
(PID.TID 0000.0001)                 7.500000000000000E+01,      /* K = 26 */
(PID.TID 0000.0001)                 1.250000000000000E+02,      /* K = 27 */
(PID.TID 0000.0001)                 1.500000000000000E+02,      /* K = 28 */
(PID.TID 0000.0001)                 1.750000000000000E+02,      /* K = 29 */
(PID.TID 0000.0001)                 2.500000000000000E+02,      /* K = 30 */
(PID.TID 0000.0001)                 3.500000000000000E+02,      /* K = 31 */
(PID.TID 0000.0001)     2 @  4.000000000000000E+02,             /* K = 32: 33 */
(PID.TID 0000.0001)                 4.500000000000000E+02,      /* K = 34 */
(PID.TID 0000.0001)                 5.000000000000000E+02       /* K = 35 */
(PID.TID 0000.0001)     ;
(PID.TID 0000.0001) drF =   /* W spacing ( units of r ) */
(PID.TID 0000.0001)    14 @  1.000000000000000E+01,             /* K =  1: 14 */
(PID.TID 0000.0001)     5 @  1.500000000000000E+01,             /* K = 15: 19 */
(PID.TID 0000.0001)     4 @  2.000000000000000E+01,             /* K = 20: 23 */
(PID.TID 0000.0001)     2 @  5.000000000000000E+01,             /* K = 24: 25 */
(PID.TID 0000.0001)                 1.000000000000000E+02,      /* K = 26 */
(PID.TID 0000.0001)     2 @  1.500000000000000E+02,             /* K = 27: 28 */
(PID.TID 0000.0001)                 2.000000000000000E+02,      /* K = 29 */
(PID.TID 0000.0001)                 3.000000000000000E+02,      /* K = 30 */
(PID.TID 0000.0001)     3 @  4.000000000000000E+02,             /* K = 31: 33 */
(PID.TID 0000.0001)     2 @  5.000000000000000E+02              /* K = 34: 35 */
(PID.TID 0000.0001)     ;
(PID.TID 0000.0001) delX =   /* U spacing ( m - cartesian, degrees - spherical ) */
(PID.TID 0000.0001)                 1.000000000000000E+00       /* I =  1 */
(PID.TID 0000.0001)     ;
(PID.TID 0000.0001) delY =   /* V spacing ( m - cartesian, degrees - spherical ) */
(PID.TID 0000.0001)                 1.000000000000000E+00       /* J =  1 */
(PID.TID 0000.0001)     ;
(PID.TID 0000.0001) phiMin =    /* South edge (ignored - cartesian, degrees - spherical ) */
(PID.TID 0000.0001)                -1.800000000000000E+01
(PID.TID 0000.0001)     ;
(PID.TID 0000.0001) thetaMin =    /* West edge ( ignored - cartesian, degrees - spherical ) */
(PID.TID 0000.0001)                 3.350000000000000E+02
(PID.TID 0000.0001)     ;
(PID.TID 0000.0001) rSphere =  /* Radius ( ignored - cartesian, m - spherical ) */
(PID.TID 0000.0001)                 6.370000000000000E+06
(PID.TID 0000.0001)     ;
(PID.TID 0000.0001) deepAtmosphere = /* Deep/Shallow Atmosphere flag (True/False) */
(PID.TID 0000.0001)                   F
(PID.TID 0000.0001)     ;
(PID.TID 0000.0001) xcoord =   /* P-point X coord ( m - cartesian, degrees - spherical ) */
(PID.TID 0000.0001)                 3.355000000000000E+02       /* I =  1 */
(PID.TID 0000.0001)     ;
(PID.TID 0000.0001) ycoord =   /* P-point Y coord ( m - cartesian, degrees - spherical ) */
(PID.TID 0000.0001)                -1.750000000000000E+01       /* J =  1 */
(PID.TID 0000.0001)     ;
(PID.TID 0000.0001) rcoord =   /* P-point R coordinate (  units of r ) */
(PID.TID 0000.0001)                -5.000000000000000E+00,      /* K =  1 */
(PID.TID 0000.0001)                -1.500000000000000E+01,      /* K =  2 */
(PID.TID 0000.0001)                -2.500000000000000E+01,      /* K =  3 */
(PID.TID 0000.0001)                -3.500000000000000E+01,      /* K =  4 */
(PID.TID 0000.0001)                -4.500000000000000E+01,      /* K =  5 */
(PID.TID 0000.0001)                -5.500000000000000E+01,      /* K =  6 */
(PID.TID 0000.0001)                -6.500000000000000E+01,      /* K =  7 */
(PID.TID 0000.0001)                -7.500000000000000E+01,      /* K =  8 */
(PID.TID 0000.0001)                -8.500000000000000E+01,      /* K =  9 */
(PID.TID 0000.0001)                -9.500000000000000E+01,      /* K = 10 */
(PID.TID 0000.0001)                -1.050000000000000E+02,      /* K = 11 */
(PID.TID 0000.0001)                -1.150000000000000E+02,      /* K = 12 */
(PID.TID 0000.0001)                -1.250000000000000E+02,      /* K = 13 */
(PID.TID 0000.0001)                -1.350000000000000E+02,      /* K = 14 */
(PID.TID 0000.0001)                -1.475000000000000E+02,      /* K = 15 */
(PID.TID 0000.0001)                -1.625000000000000E+02,      /* K = 16 */
(PID.TID 0000.0001)                -1.775000000000000E+02,      /* K = 17 */
(PID.TID 0000.0001)                -1.925000000000000E+02,      /* K = 18 */
(PID.TID 0000.0001)                -2.075000000000000E+02,      /* K = 19 */
(PID.TID 0000.0001)                -2.250000000000000E+02,      /* K = 20 */
(PID.TID 0000.0001)                -2.450000000000000E+02,      /* K = 21 */
(PID.TID 0000.0001)                -2.650000000000000E+02,      /* K = 22 */
(PID.TID 0000.0001)                -2.850000000000000E+02,      /* K = 23 */
(PID.TID 0000.0001)                -3.200000000000000E+02,      /* K = 24 */
(PID.TID 0000.0001)                -3.700000000000000E+02,      /* K = 25 */
(PID.TID 0000.0001)                -4.450000000000000E+02,      /* K = 26 */
(PID.TID 0000.0001)                -5.700000000000000E+02,      /* K = 27 */
(PID.TID 0000.0001)                -7.200000000000000E+02,      /* K = 28 */
(PID.TID 0000.0001)                -8.950000000000000E+02,      /* K = 29 */
(PID.TID 0000.0001)                -1.145000000000000E+03,      /* K = 30 */
(PID.TID 0000.0001)                -1.495000000000000E+03,      /* K = 31 */
(PID.TID 0000.0001)                -1.895000000000000E+03,      /* K = 32 */
(PID.TID 0000.0001)                -2.295000000000000E+03,      /* K = 33 */
(PID.TID 0000.0001)                -2.745000000000000E+03,      /* K = 34 */
(PID.TID 0000.0001)                -3.245000000000000E+03       /* K = 35 */
(PID.TID 0000.0001)     ;
(PID.TID 0000.0001) rF =   /* W-Interf. R coordinate (  units of r ) */
(PID.TID 0000.0001)                 0.000000000000000E+00,      /* K =  1 */
(PID.TID 0000.0001)                -1.000000000000000E+01,      /* K =  2 */
(PID.TID 0000.0001)                -2.000000000000000E+01,      /* K =  3 */
(PID.TID 0000.0001)                -3.000000000000000E+01,      /* K =  4 */
(PID.TID 0000.0001)                -4.000000000000000E+01,      /* K =  5 */
(PID.TID 0000.0001)                -5.000000000000000E+01,      /* K =  6 */
(PID.TID 0000.0001)                -6.000000000000000E+01,      /* K =  7 */
(PID.TID 0000.0001)                -7.000000000000000E+01,      /* K =  8 */
(PID.TID 0000.0001)                -8.000000000000000E+01,      /* K =  9 */
(PID.TID 0000.0001)                -9.000000000000000E+01,      /* K = 10 */
(PID.TID 0000.0001)                -1.000000000000000E+02,      /* K = 11 */
(PID.TID 0000.0001)                -1.100000000000000E+02,      /* K = 12 */
(PID.TID 0000.0001)                -1.200000000000000E+02,      /* K = 13 */
(PID.TID 0000.0001)                -1.300000000000000E+02,      /* K = 14 */
(PID.TID 0000.0001)                -1.400000000000000E+02,      /* K = 15 */
(PID.TID 0000.0001)                -1.550000000000000E+02,      /* K = 16 */
(PID.TID 0000.0001)                -1.700000000000000E+02,      /* K = 17 */
(PID.TID 0000.0001)                -1.850000000000000E+02,      /* K = 18 */
(PID.TID 0000.0001)                -2.000000000000000E+02,      /* K = 19 */
(PID.TID 0000.0001)                -2.150000000000000E+02,      /* K = 20 */
(PID.TID 0000.0001)                -2.350000000000000E+02,      /* K = 21 */
(PID.TID 0000.0001)                -2.550000000000000E+02,      /* K = 22 */
(PID.TID 0000.0001)                -2.750000000000000E+02,      /* K = 23 */
(PID.TID 0000.0001)                -2.950000000000000E+02,      /* K = 24 */
(PID.TID 0000.0001)                -3.450000000000000E+02,      /* K = 25 */
(PID.TID 0000.0001)                -3.950000000000000E+02,      /* K = 26 */
(PID.TID 0000.0001)                -4.950000000000000E+02,      /* K = 27 */
(PID.TID 0000.0001)                -6.450000000000000E+02,      /* K = 28 */
(PID.TID 0000.0001)                -7.950000000000000E+02,      /* K = 29 */
(PID.TID 0000.0001)                -9.950000000000000E+02,      /* K = 30 */
(PID.TID 0000.0001)                -1.295000000000000E+03,      /* K = 31 */
(PID.TID 0000.0001)                -1.695000000000000E+03,      /* K = 32 */
(PID.TID 0000.0001)                -2.095000000000000E+03,      /* K = 33 */
(PID.TID 0000.0001)                -2.495000000000000E+03,      /* K = 34 */
(PID.TID 0000.0001)                -2.995000000000000E+03,      /* K = 35 */
(PID.TID 0000.0001)                -3.495000000000000E+03       /* K = 36 */
(PID.TID 0000.0001)     ;
(PID.TID 0000.0001) deepFacC = /* deep-model grid factor @ cell-Center (-) */
(PID.TID 0000.0001)    35 @  1.000000000000000E+00              /* K =  1: 35 */
(PID.TID 0000.0001)     ;
(PID.TID 0000.0001) deepFacF = /* deep-model grid factor @ W-Interface (-) */
(PID.TID 0000.0001)    36 @  1.000000000000000E+00              /* K =  1: 36 */
(PID.TID 0000.0001)     ;
(PID.TID 0000.0001) rVel2wUnit = /* convert units: rVel -> wSpeed (=1 if z-coord)*/
(PID.TID 0000.0001)    36 @  1.000000000000000E+00              /* K =  1: 36 */
(PID.TID 0000.0001)     ;
(PID.TID 0000.0001) wUnit2rVel = /* convert units: wSpeed -> rVel (=1 if z-coord)*/
(PID.TID 0000.0001)    36 @  1.000000000000000E+00              /* K =  1: 36 */
(PID.TID 0000.0001)     ;
(PID.TID 0000.0001) dBdrRef = /* Vertical gradient of reference boyancy [(m/s/r)^2)] */
(PID.TID 0000.0001)                 0.000000000000000E+00,      /* K =  1 */
(PID.TID 0000.0001)                 1.232578190459821E-04,      /* K =  2 */
(PID.TID 0000.0001)                 3.063957957303617E-05,      /* K =  3 */
(PID.TID 0000.0001)                 1.521320422054373E-04,      /* K =  4 */
(PID.TID 0000.0001)                 3.021271930223580E-05,      /* K =  5 */
(PID.TID 0000.0001)                 1.499903428890670E-04,      /* K =  6 */
(PID.TID 0000.0001)                 1.186737265074332E-04,      /* K =  7 */
(PID.TID 0000.0001)                 1.466841384627423E-04,      /* K =  8 */
(PID.TID 0000.0001)                 8.712618931102987E-05,      /* K =  9 */
(PID.TID 0000.0001)                 1.151380441308261E-04,      /* K = 10 */
(PID.TID 0000.0001)                 5.712979717883684E-05,      /* K = 11 */
(PID.TID 0000.0001)                 8.515049872565506E-05,      /* K = 12 */
(PID.TID 0000.0001)                 8.448721842774896E-05,      /* K = 13 */
(PID.TID 0000.0001)                 1.116043428725511E-04,      /* K = 14 */
(PID.TID 0000.0001)                 1.102373809396796E-04,      /* K = 15 */
(PID.TID 0000.0001)                 1.798828639202717E-04,      /* K = 16 */
(PID.TID 0000.0001)                 1.918102676980872E-04,      /* K = 17 */
(PID.TID 0000.0001)                 1.853506120896664E-04,      /* K = 18 */
(PID.TID 0000.0001)                 1.787791674911888E-04,      /* K = 19 */
(PID.TID 0000.0001)                 9.455522998141848E-05,      /* K = 20 */
(PID.TID 0000.0001)                 1.259231836379978E-04,      /* K = 21 */
(PID.TID 0000.0001)                 9.923620256554768E-05,      /* K = 22 */
(PID.TID 0000.0001)                 8.531935398693722E-05,      /* K = 23 */
(PID.TID 0000.0001)                 4.137475825384700E-05,      /* K = 24 */
(PID.TID 0000.0001)                 5.930109718499171E-05,      /* K = 25 */
(PID.TID 0000.0001)                 3.689739454308316E-05,      /* K = 26 */
(PID.TID 0000.0001)                 3.215311288275425E-05,      /* K = 27 */
(PID.TID 0000.0001)                 2.340106578013931E-05,      /* K = 28 */
(PID.TID 0000.0001)                 8.957465806881803E-06,      /* K = 29 */
(PID.TID 0000.0001)                 2.029141226789735E-06,      /* K = 30 */
(PID.TID 0000.0001)                 0.000000000000000E+00,      /* K = 31 */
(PID.TID 0000.0001)                 1.052869956707729E-06,      /* K = 32 */
(PID.TID 0000.0001)                 1.465965950004292E-06,      /* K = 33 */
(PID.TID 0000.0001)                 6.817081889333135E-07,      /* K = 34 */
(PID.TID 0000.0001)                 6.544800624285541E-07       /* K = 35 */
(PID.TID 0000.0001)     ;
(PID.TID 0000.0001) rotateGrid = /* use rotated grid ( True/False ) */
(PID.TID 0000.0001)                   F
(PID.TID 0000.0001)     ;
(PID.TID 0000.0001) phiEuler = /* Euler angle, rotation about original z-coordinate [rad] */
(PID.TID 0000.0001)                 0.000000000000000E+00
(PID.TID 0000.0001)     ;
(PID.TID 0000.0001) thetaEuler = /* Euler angle, rotation about new x-coordinate [rad] */
(PID.TID 0000.0001)                 0.000000000000000E+00
(PID.TID 0000.0001)     ;
(PID.TID 0000.0001) psiEuler = /* Euler angle, rotation about new z-coordinate [rad] */
(PID.TID 0000.0001)                 0.000000000000000E+00
(PID.TID 0000.0001)     ;
(PID.TID 0000.0001) dxF =  /* dxF(:,1,:,1) ( units: m ) */
(PID.TID 0000.0001)                 1.060318408771987E+05       /* I =  1 */
(PID.TID 0000.0001)     ;
(PID.TID 0000.0001) dxF =  /* dxF(1,:,1,:) ( units: m ) */
(PID.TID 0000.0001)                 1.060318408771987E+05       /* J =  1 */
(PID.TID 0000.0001)     ;
(PID.TID 0000.0001) dyF =  /* dyF(:,1,:,1) ( units: m ) */
(PID.TID 0000.0001)                 1.111774733520388E+05       /* I =  1 */
(PID.TID 0000.0001)     ;
(PID.TID 0000.0001) dyF =  /* dyF(1,:,1,:) ( units: m ) */
(PID.TID 0000.0001)                 1.111774733520388E+05       /* J =  1 */
(PID.TID 0000.0001)     ;
(PID.TID 0000.0001) dxG =  /* dxG(:,1,:,1) ( units: m ) */
(PID.TID 0000.0001)                 1.057360604966873E+05       /* I =  1 */
(PID.TID 0000.0001)     ;
(PID.TID 0000.0001) dxG =  /* dxG(1,:,1,:) ( units: m ) */
(PID.TID 0000.0001)                 1.057360604966873E+05       /* J =  1 */
(PID.TID 0000.0001)     ;
(PID.TID 0000.0001) dyG =  /* dyG(:,1,:,1) ( units: m ) */
(PID.TID 0000.0001)                 1.111774733520388E+05       /* I =  1 */
(PID.TID 0000.0001)     ;
(PID.TID 0000.0001) dyG =  /* dyG(1,:,1,:) ( units: m ) */
(PID.TID 0000.0001)                 1.111774733520388E+05       /* J =  1 */
(PID.TID 0000.0001)     ;
(PID.TID 0000.0001) dxC =  /* dxC(:,1,:,1) ( units: m ) */
(PID.TID 0000.0001)                 1.060318408771987E+05       /* I =  1 */
(PID.TID 0000.0001)     ;
(PID.TID 0000.0001) dxC =  /* dxC(1,:,1,:) ( units: m ) */
(PID.TID 0000.0001)                 1.060318408771987E+05       /* J =  1 */
(PID.TID 0000.0001)     ;
(PID.TID 0000.0001) dyC =  /* dyC(:,1,:,1) ( units: m ) */
(PID.TID 0000.0001)                 1.111774733520388E+05       /* I =  1 */
(PID.TID 0000.0001)     ;
(PID.TID 0000.0001) dyC =  /* dyC(1,:,1,:) ( units: m ) */
(PID.TID 0000.0001)                 1.111774733520388E+05       /* J =  1 */
(PID.TID 0000.0001)     ;
(PID.TID 0000.0001) dxV =  /* dxV(:,1,:,1) ( units: m ) */
(PID.TID 0000.0001)                 1.057360604966873E+05       /* I =  1 */
(PID.TID 0000.0001)     ;
(PID.TID 0000.0001) dxV =  /* dxV(1,:,1,:) ( units: m ) */
(PID.TID 0000.0001)                 1.057360604966873E+05       /* J =  1 */
(PID.TID 0000.0001)     ;
(PID.TID 0000.0001) dyU =  /* dyU(:,1,:,1) ( units: m ) */
(PID.TID 0000.0001)                 1.111774733520388E+05       /* I =  1 */
(PID.TID 0000.0001)     ;
(PID.TID 0000.0001) dyU =  /* dyU(1,:,1,:) ( units: m ) */
(PID.TID 0000.0001)                 1.111774733520388E+05       /* J =  1 */
(PID.TID 0000.0001)     ;
(PID.TID 0000.0001) rA  =  /* rA (:,1,:,1) ( units: m^2 ) */
(PID.TID 0000.0001)                 1.178820254176956E+10       /* I =  1 */
(PID.TID 0000.0001)     ;
(PID.TID 0000.0001) rA  =  /* rA (1,:,1,:) ( units: m^2 ) */
(PID.TID 0000.0001)                 1.178820254176956E+10       /* J =  1 */
(PID.TID 0000.0001)     ;
(PID.TID 0000.0001) rAw =  /* rAw(:,1,:,1) ( units: m^2 ) */
(PID.TID 0000.0001)                 1.178820254176956E+10       /* I =  1 */
(PID.TID 0000.0001)     ;
(PID.TID 0000.0001) rAw =  /* rAw(1,:,1,:) ( units: m^2 ) */
(PID.TID 0000.0001)                 1.178820254176956E+10       /* J =  1 */
(PID.TID 0000.0001)     ;
(PID.TID 0000.0001) rAs =  /* rAs(:,1,:,1) ( units: m^2 ) */
(PID.TID 0000.0001)                 1.175531884377377E+10       /* I =  1 */
(PID.TID 0000.0001)     ;
(PID.TID 0000.0001) rAs =  /* rAs(1,:,1,:) ( units: m^2 ) */
(PID.TID 0000.0001)                 1.175531884377377E+10       /* J =  1 */
(PID.TID 0000.0001)     ;
(PID.TID 0000.0001) globalArea = /* Integrated horizontal Area (m^2) */
(PID.TID 0000.0001)                 1.178820254176956E+10
(PID.TID 0000.0001)     ;
(PID.TID 0000.0001) // =======================================================
(PID.TID 0000.0001) // End of Model config. summary
(PID.TID 0000.0001) // =======================================================
(PID.TID 0000.0001) 
(PID.TID 0000.0001) == Packages configuration : Check & print summary ==
(PID.TID 0000.0001) 
(PID.TID 0000.0001) GAD_CHECK: #define ALLOW_GENERIC_ADVDIFF
(PID.TID 0000.0001) GCHEM_CHECK: #define ALLOW_GCHEM
(PID.TID 0000.0001) DARWIN_CHECK: #define ALLOW_DARWIN
(PID.TID 0000.0001) DARWIN_CHECK: iPtr darwin   PTRACERS_names
(PID.TID 0000.0001) DARWIN_CHECK:    1 PO4      PO4
(PID.TID 0000.0001) DARWIN_CHECK:    2 NO3      NO3
(PID.TID 0000.0001) DARWIN_CHECK:    3 FeT      FeT
(PID.TID 0000.0001) DARWIN_CHECK:    4 Si       SiO2
(PID.TID 0000.0001) DARWIN_CHECK:    5 DOP      DOP
(PID.TID 0000.0001) DARWIN_CHECK:    6 DON      DON
(PID.TID 0000.0001) DARWIN_CHECK:    7 DOFe     DOFe
(PID.TID 0000.0001) DARWIN_CHECK:    8 ZooP (1) ZOO1P
(PID.TID 0000.0001) DARWIN_CHECK:    9 ZooN (1) ZOO1N
(PID.TID 0000.0001) DARWIN_CHECK:   10 ZooFe(1) ZOO1Fe
(PID.TID 0000.0001) DARWIN_CHECK:   11 ZooSi(1) ZOO1Si
(PID.TID 0000.0001) DARWIN_CHECK:   12 ZooP (2) ZOO2P
(PID.TID 0000.0001) DARWIN_CHECK:   13 ZooN (2) ZOO2N
(PID.TID 0000.0001) DARWIN_CHECK:   14 ZooFe(2) ZOO2Fe
(PID.TID 0000.0001) DARWIN_CHECK:   15 ZooSi(2) ZOO2Si
(PID.TID 0000.0001) DARWIN_CHECK:   16 POP      POP
(PID.TID 0000.0001) DARWIN_CHECK:   17 PON      PON
(PID.TID 0000.0001) DARWIN_CHECK:   18 POFe     POFe
(PID.TID 0000.0001) DARWIN_CHECK:   19 POSi     POSi
(PID.TID 0000.0001) DARWIN_CHECK:   20 NH4      NH4
(PID.TID 0000.0001) DARWIN_CHECK:   21 NO2      NO2
(PID.TID 0000.0001) DARWIN_CHECK:   22 Phy(1)   Phy1
(PID.TID 0000.0001) DARWIN_CHECK:   99 Phy(  78)Phy78
(PID.TID 0000.0001) // =======================================================
(PID.TID 0000.0001) // CONFIG_CHECK : Normal End
(PID.TID 0000.0001) // =======================================================
(PID.TID 0000.0001) 
(PID.TID 0000.0001)  MDS_READ_FIELD: opening global file: input/loc1_temp_janprof.bin
(PID.TID 0000.0001) // =======================================================
(PID.TID 0000.0001) // Field Initial Temperature at iteration          1
(PID.TID 0000.0001) // CMIN =          2.634580039978027E+01
(PID.TID 0000.0001) // CMAX =          2.634580039978027E+01
(PID.TID 0000.0001) // CINT =          0.000000000000000E+00
(PID.TID 0000.0001) // SYMBOLS (CMIN->CMAX): -abcdefghijklmnopqrstuvwxyz+
(PID.TID 0000.0001) //                  0.0: .
(PID.TID 0000.0001) // RANGE I (Lo:Hi:Step):(   1:   1:   1)
(PID.TID 0000.0001) // RANGE J (Lo:Hi:Step):(   1:   1:  -1)
(PID.TID 0000.0001) // RANGE K (Lo:Hi:Step):(   1:   1:   1)
(PID.TID 0000.0001) // =======================================================
(PID.TID 0000.0001) // =======================================================
(PID.TID 0000.0001) // END OF FIELD                                          =
(PID.TID 0000.0001) // =======================================================
(PID.TID 0000.0001) 
(PID.TID 0000.0001)  MDS_READ_FIELD: opening global file: input/salt_uniform.bin
(PID.TID 0000.0001) // =======================================================
(PID.TID 0000.0001) // Field Initial Salinity at iteration          1
(PID.TID 0000.0001) // CMIN =          3.500000000000000E+01
(PID.TID 0000.0001) // CMAX =          3.500000000000000E+01
(PID.TID 0000.0001) // CINT =          0.000000000000000E+00
(PID.TID 0000.0001) // SYMBOLS (CMIN->CMAX): -abcdefghijklmnopqrstuvwxyz+
(PID.TID 0000.0001) //                  0.0: .
(PID.TID 0000.0001) // RANGE I (Lo:Hi:Step):(   1:   1:   1)
(PID.TID 0000.0001) // RANGE J (Lo:Hi:Step):(   1:   1:  -1)
(PID.TID 0000.0001) // RANGE K (Lo:Hi:Step):(   1:   1:   1)
(PID.TID 0000.0001) // =======================================================
(PID.TID 0000.0001) // =======================================================
(PID.TID 0000.0001) // END OF FIELD                                          =
(PID.TID 0000.0001) // =======================================================
(PID.TID 0000.0001) 
(PID.TID 0000.0001) Start initial hydrostatic pressure computation
(PID.TID 0000.0001) Pressure is predetermined for buoyancyRelation OCEANIC
(PID.TID 0000.0001) 
(PID.TID 0000.0001)  MDS_READ_FIELD: opening global file: input/loc1_temp_monsurf.bin
(PID.TID 0000.0001)  MDS_READ_FIELD: opening global file: input/loc1_phos_janprof.bin
(PID.TID 0000.0001)  MDS_READ_FIELD: opening global file: input/loc1_nitr_janprof.bin
(PID.TID 0000.0001)  MDS_READ_FIELD: opening global file: input/fet_uniform.bin
(PID.TID 0000.0001)  MDS_READ_FIELD: opening global file: input/loc1_sil_janprof.bin
(PID.TID 0000.0001)  MDS_READ_FIELD: opening global file: input/loc1_DOP_run83_janprof.bin
(PID.TID 0000.0001)  MDS_READ_FIELD: opening global file: input/loc1_DON_run83_janprof.bin
(PID.TID 0000.0001)  MDS_READ_FIELD: opening global file: input/loc1_DOFe_run83_janprof.bin
(PID.TID 0000.0001)  MDS_READ_FIELD: opening global file: input/loc1_ZOOP_run83_janprof.bin
(PID.TID 0000.0001)  MDS_READ_FIELD: opening global file: input/loc1_ZOON_run83_janprof.bin
(PID.TID 0000.0001)  MDS_READ_FIELD: opening global file: input/loc1_ZOOFe_run83_janprof.bin
(PID.TID 0000.0001)  MDS_READ_FIELD: opening global file: input/loc1_ZOOSi_run83_janprof.bin
(PID.TID 0000.0001)  MDS_READ_FIELD: opening global file: input/loc1_ZOOP_run83_janprof.bin
(PID.TID 0000.0001)  MDS_READ_FIELD: opening global file: input/loc1_ZOON_run83_janprof.bin
(PID.TID 0000.0001)  MDS_READ_FIELD: opening global file: input/loc1_ZOOFe_run83_janprof.bin
(PID.TID 0000.0001)  MDS_READ_FIELD: opening global file: input/loc1_ZOOSi_run83_janprof.bin
(PID.TID 0000.0001)  MDS_READ_FIELD: opening global file: input/loc1_POP_run83_janprof.bin
(PID.TID 0000.0001)  MDS_READ_FIELD: opening global file: input/loc1_PON_run83_janprof.bin
(PID.TID 0000.0001)  MDS_READ_FIELD: opening global file: input/loc1_POFe_run83_janprof.bin
(PID.TID 0000.0001)  MDS_READ_FIELD: opening global file: input/loc1_POSi_run83_janprof.bin
(PID.TID 0000.0001)  MDS_READ_FIELD: opening global file: input/loc1_NH4_run83_janprof.bin
(PID.TID 0000.0001)  MDS_READ_FIELD: opening global file: input/loc1_NO2_run83_janprof.bin
(PID.TID 0000.0001)  MDS_READ_FIELD: opening global file: input/loc1_biomass_run83_janprof.bin
(PID.TID 0000.0001)  MDS_READ_FIELD: opening global file: input/loc1_biomass_run83_janprof.bin
(PID.TID 0000.0001)  MDS_READ_FIELD: opening global file: input/loc1_biomass_run83_janprof.bin
(PID.TID 0000.0001)  MDS_READ_FIELD: opening global file: input/loc1_biomass_run83_janprof.bin
(PID.TID 0000.0001)  MDS_READ_FIELD: opening global file: input/loc1_biomass_run83_janprof.bin
(PID.TID 0000.0001)  MDS_READ_FIELD: opening global file: input/loc1_biomass_run83_janprof.bin
(PID.TID 0000.0001)  MDS_READ_FIELD: opening global file: input/loc1_biomass_run83_janprof.bin
(PID.TID 0000.0001)  MDS_READ_FIELD: opening global file: input/loc1_biomass_run83_janprof.bin
(PID.TID 0000.0001)  MDS_READ_FIELD: opening global file: input/loc1_biomass_run83_janprof.bin
(PID.TID 0000.0001)  MDS_READ_FIELD: opening global file: input/loc1_biomass_run83_janprof.bin
(PID.TID 0000.0001)  MDS_READ_FIELD: opening global file: input/loc1_biomass_run83_janprof.bin
(PID.TID 0000.0001)  MDS_READ_FIELD: opening global file: input/loc1_biomass_run83_janprof.bin
(PID.TID 0000.0001)  MDS_READ_FIELD: opening global file: input/loc1_biomass_run83_janprof.bin
(PID.TID 0000.0001)  MDS_READ_FIELD: opening global file: input/loc1_biomass_run83_janprof.bin
(PID.TID 0000.0001)  MDS_READ_FIELD: opening global file: input/loc1_biomass_run83_janprof.bin
(PID.TID 0000.0001)  MDS_READ_FIELD: opening global file: input/loc1_biomass_run83_janprof.bin
(PID.TID 0000.0001)  MDS_READ_FIELD: opening global file: input/loc1_biomass_run83_janprof.bin
(PID.TID 0000.0001)  MDS_READ_FIELD: opening global file: input/loc1_biomass_run83_janprof.bin
(PID.TID 0000.0001)  MDS_READ_FIELD: opening global file: input/loc1_biomass_run83_janprof.bin
(PID.TID 0000.0001)  MDS_READ_FIELD: opening global file: input/loc1_biomass_run83_janprof.bin
(PID.TID 0000.0001)  MDS_READ_FIELD: opening global file: input/loc1_biomass_run83_janprof.bin
(PID.TID 0000.0001)  MDS_READ_FIELD: opening global file: input/loc1_biomass_run83_janprof.bin
(PID.TID 0000.0001)  MDS_READ_FIELD: opening global file: input/loc1_biomass_run83_janprof.bin
(PID.TID 0000.0001)  MDS_READ_FIELD: opening global file: input/loc1_biomass_run83_janprof.bin
(PID.TID 0000.0001)  MDS_READ_FIELD: opening global file: input/loc1_biomass_run83_janprof.bin
(PID.TID 0000.0001)  MDS_READ_FIELD: opening global file: input/loc1_biomass_run83_janprof.bin
(PID.TID 0000.0001)  MDS_READ_FIELD: opening global file: input/loc1_biomass_run83_janprof.bin
(PID.TID 0000.0001)  MDS_READ_FIELD: opening global file: input/loc1_biomass_run83_janprof.bin
(PID.TID 0000.0001)  MDS_READ_FIELD: opening global file: input/loc1_biomass_run83_janprof.bin
(PID.TID 0000.0001)  MDS_READ_FIELD: opening global file: input/loc1_biomass_run83_janprof.bin
(PID.TID 0000.0001)  MDS_READ_FIELD: opening global file: input/loc1_biomass_run83_janprof.bin
(PID.TID 0000.0001)  MDS_READ_FIELD: opening global file: input/loc1_biomass_run83_janprof.bin
(PID.TID 0000.0001)  MDS_READ_FIELD: opening global file: input/loc1_biomass_run83_janprof.bin
(PID.TID 0000.0001)  MDS_READ_FIELD: opening global file: input/loc1_biomass_run83_janprof.bin
(PID.TID 0000.0001)  MDS_READ_FIELD: opening global file: input/loc1_biomass_run83_janprof.bin
(PID.TID 0000.0001)  MDS_READ_FIELD: opening global file: input/loc1_biomass_run83_janprof.bin
(PID.TID 0000.0001)  MDS_READ_FIELD: opening global file: input/loc1_biomass_run83_janprof.bin
(PID.TID 0000.0001)  MDS_READ_FIELD: opening global file: input/loc1_biomass_run83_janprof.bin
(PID.TID 0000.0001)  MDS_READ_FIELD: opening global file: input/loc1_biomass_run83_janprof.bin
(PID.TID 0000.0001)  MDS_READ_FIELD: opening global file: input/loc1_biomass_run83_janprof.bin
(PID.TID 0000.0001)  MDS_READ_FIELD: opening global file: input/loc1_biomass_run83_janprof.bin
(PID.TID 0000.0001)  MDS_READ_FIELD: opening global file: input/loc1_biomass_run83_janprof.bin
(PID.TID 0000.0001)  MDS_READ_FIELD: opening global file: input/loc1_biomass_run83_janprof.bin
(PID.TID 0000.0001)  MDS_READ_FIELD: opening global file: input/loc1_biomass_run83_janprof.bin
(PID.TID 0000.0001)  MDS_READ_FIELD: opening global file: input/loc1_biomass_run83_janprof.bin
(PID.TID 0000.0001)  MDS_READ_FIELD: opening global file: input/loc1_biomass_run83_janprof.bin
(PID.TID 0000.0001)  MDS_READ_FIELD: opening global file: input/loc1_biomass_run83_janprof.bin
(PID.TID 0000.0001)  MDS_READ_FIELD: opening global file: input/loc1_biomass_run83_janprof.bin
(PID.TID 0000.0001)  MDS_READ_FIELD: opening global file: input/loc1_biomass_run83_janprof.bin
(PID.TID 0000.0001)  MDS_READ_FIELD: opening global file: input/loc1_biomass_run83_janprof.bin
(PID.TID 0000.0001)  MDS_READ_FIELD: opening global file: input/loc1_biomass_run83_janprof.bin
(PID.TID 0000.0001)  MDS_READ_FIELD: opening global file: input/loc1_biomass_run83_janprof.bin
(PID.TID 0000.0001)  MDS_READ_FIELD: opening global file: input/loc1_biomass_run83_janprof.bin
(PID.TID 0000.0001)  MDS_READ_FIELD: opening global file: input/loc1_biomass_run83_janprof.bin
(PID.TID 0000.0001)  MDS_READ_FIELD: opening global file: input/loc1_biomass_run83_janprof.bin
(PID.TID 0000.0001)  MDS_READ_FIELD: opening global file: input/loc1_biomass_run83_janprof.bin
(PID.TID 0000.0001)  MDS_READ_FIELD: opening global file: input/loc1_biomass_run83_janprof.bin
(PID.TID 0000.0001)  MDS_READ_FIELD: opening global file: input/loc1_biomass_run83_janprof.bin
(PID.TID 0000.0001)  MDS_READ_FIELD: opening global file: input/loc1_biomass_run83_janprof.bin
(PID.TID 0000.0001)  MDS_READ_FIELD: opening global file: input/loc1_biomass_run83_janprof.bin
(PID.TID 0000.0001)  MDS_READ_FIELD: opening global file: input/loc1_biomass_run83_janprof.bin
(PID.TID 0000.0001)  MDS_READ_FIELD: opening global file: input/loc1_biomass_run83_janprof.bin
(PID.TID 0000.0001)  MDS_READ_FIELD: opening global file: input/loc1_biomass_run83_janprof.bin
(PID.TID 0000.0001)  MDS_READ_FIELD: opening global file: input/loc1_biomass_run83_janprof.bin
(PID.TID 0000.0001)  MDS_READ_FIELD: opening global file: input/loc1_biomass_run83_janprof.bin
(PID.TID 0000.0001)  MDS_READ_FIELD: opening global file: input/loc1_biomass_run83_janprof.bin
(PID.TID 0000.0001)  MDS_READ_FIELD: opening global file: input/loc1_biomass_run83_janprof.bin
(PID.TID 0000.0001)  MDS_READ_FIELD: opening global file: input/loc1_biomass_run83_janprof.bin
(PID.TID 0000.0001)  MDS_READ_FIELD: opening global file: input/loc1_biomass_run83_janprof.bin
(PID.TID 0000.0001)  MDS_READ_FIELD: opening global file: input/loc1_biomass_run83_janprof.bin
(PID.TID 0000.0001)  MDS_READ_FIELD: opening global file: input/loc1_biomass_run83_janprof.bin
(PID.TID 0000.0001)  MDS_READ_FIELD: opening global file: input/loc1_biomass_run83_janprof.bin
(PID.TID 0000.0001)  MDS_READ_FIELD: opening global file: input/loc1_biomass_run83_janprof.bin
(PID.TID 0000.0001)  MDS_READ_FIELD: opening global file: input/loc1_biomass_run83_janprof.bin
(PID.TID 0000.0001)  MDS_READ_FIELD: opening global file: input/loc1_biomass_run83_janprof.bin
(PID.TID 0000.0001)  MDS_READ_FIELD: opening global file: input/loc1_biomass_run83_janprof.bin
(PID.TID 0000.0001)  MDS_READ_FIELD: opening global file: input/loc1_biomass_run83_janprof.bin
(PID.TID 0000.0001)  MDS_READ_FIELD: opening global file: input/loc1_biomass_run83_janprof.bin
(PID.TID 0000.0001) // =======================================================
(PID.TID 0000.0001) // Darwin init variables >>> START <<<
(PID.TID 0000.0001) // =======================================================
(PID.TID 0000.0001) QQ random port_rand            11231   0.4077530000000000
(PID.TID 0000.0001) generate Phyto: np =    1 FIXED - no DIAZO
(PID.TID 0000.0001) generate Phyto: np =    1 Topt       =   14.5686000000000
(PID.TID 0000.0001) generate Phyto: np =    1 growthdays =  0.400000000000000
(PID.TID 0000.0001) generate Phyto: np =    1 pcmax    =  2.893518518518519E-005
(PID.TID 0000.0001) generate Phyto: np =    1 mQyield    =  5.510026000000000E-005
(PID.TID 0000.0001) generate Phyto: np =    1 chl2cmax     =  0.608264375000000
(PID.TID 0000.0001) generate Phyto: np =    2 FIXED - no DIAZO
(PID.TID 0000.0001) generate Phyto: np =    2 Topt       =   26.6988320000000
(PID.TID 0000.0001) generate Phyto: np =    2 growthdays =  0.700000000000000
(PID.TID 0000.0001) generate Phyto: np =    2 pcmax    =  1.653439153439154E-005
(PID.TID 0000.0001) generate Phyto: np =    2 mQyield    =  1.297916750000000E-004
(PID.TID 0000.0001) generate Phyto: np =    2 chl2cmax     =  0.483023900000000
(PID.TID 0000.0001) generate Phyto: np =    3 FIXED - no DIAZO
(PID.TID 0000.0001) generate Phyto: np =    3 Topt       = -0.108120000000000
(PID.TID 0000.0001) generate Phyto: np =    3 growthdays =  0.400000000000000
(PID.TID 0000.0001) generate Phyto: np =    3 pcmax    =  2.893518518518519E-005
(PID.TID 0000.0001) generate Phyto: np =    3 mQyield    =  4.349377000000000E-005
(PID.TID 0000.0001) generate Phyto: np =    3 chl2cmax     =  0.751286900000000
(PID.TID 0000.0001) generate Phyto: np =    4 FIXED - no DIAZO
(PID.TID 0000.0001) generate Phyto: np =    4 Topt       =   19.9058880000000
(PID.TID 0000.0001) generate Phyto: np =    4 growthdays =  0.400000000000000
(PID.TID 0000.0001) generate Phyto: np =    4 pcmax    =  2.893518518518519E-005
(PID.TID 0000.0001) generate Phyto: np =    4 mQyield    =  3.107189000000000E-005
(PID.TID 0000.0001) generate Phyto: np =    4 chl2cmax     =  0.773187425000000
(PID.TID 0000.0001) generate Phyto: np =    5 FIXED - no DIAZO
(PID.TID 0000.0001) generate Phyto: np =    5 Topt       =   26.5722480000000
(PID.TID 0000.0001) generate Phyto: np =    5 growthdays =  0.700000000000000
(PID.TID 0000.0001) generate Phyto: np =    5 pcmax    =  1.653439153439154E-005
(PID.TID 0000.0001) generate Phyto: np =    5 mQyield    =  6.291090000000000E-005
(PID.TID 0000.0001) generate Phyto: np =    5 chl2cmax     =  0.484896800000000
(PID.TID 0000.0001) generate Phyto: np =    6 FIXED - no DIAZO
(PID.TID 0000.0001) generate Phyto: np =    6 Topt       =   10.9115600000000
(PID.TID 0000.0001) generate Phyto: np =    6 growthdays =  0.700000000000000
(PID.TID 0000.0001) generate Phyto: np =    6 pcmax    =  1.653439153439154E-005
(PID.TID 0000.0001) generate Phyto: np =    6 mQyield    =  9.148747500000000E-005
(PID.TID 0000.0001) generate Phyto: np =    6 chl2cmax     =  0.292228550000000
(PID.TID 0000.0001) generate Phyto: np =    7 FIXED - no DIAZO
(PID.TID 0000.0001) generate Phyto: np =    7 Topt       =   22.3168720000000
(PID.TID 0000.0001) generate Phyto: np =    7 growthdays =  0.700000000000000
(PID.TID 0000.0001) generate Phyto: np =    7 pcmax    =  1.653439153439154E-005
(PID.TID 0000.0001) generate Phyto: np =    7 mQyield    =  1.440584000000000E-004
(PID.TID 0000.0001) generate Phyto: np =    7 chl2cmax     =  0.227707400000000
(PID.TID 0000.0001) generate Phyto: np =    8 FIXED - no DIAZO
(PID.TID 0000.0001) generate Phyto: np =    8 Topt       =   17.3870320000000
(PID.TID 0000.0001) generate Phyto: np =    8 growthdays =  0.700000000000000
(PID.TID 0000.0001) generate Phyto: np =    8 pcmax    =  1.653439153439154E-005
(PID.TID 0000.0001) generate Phyto: np =    8 mQyield    =  6.205387500000000E-005
(PID.TID 0000.0001) generate Phyto: np =    8 chl2cmax     =  0.495783650000000
(PID.TID 0000.0001) generate Phyto: np =    9 FIXED - no DIAZO
(PID.TID 0000.0001) generate Phyto: np =    9 Topt       =   19.3170800000000
(PID.TID 0000.0001) generate Phyto: np =    9 growthdays =  0.700000000000000
(PID.TID 0000.0001) generate Phyto: np =    9 pcmax    =  1.653439153439154E-005
(PID.TID 0000.0001) generate Phyto: np =    9 mQyield    =  1.147944250000000E-004
(PID.TID 0000.0001) generate Phyto: np =    9 chl2cmax     =  0.287002025000000
(PID.TID 0000.0001) generate Phyto: np =   10 FIXED - no DIAZO
(PID.TID 0000.0001) generate Phyto: np =   10 Topt       =   25.6451600000000
(PID.TID 0000.0001) generate Phyto: np =   10 growthdays =  0.700000000000000
(PID.TID 0000.0001) generate Phyto: np =   10 pcmax    =  1.653439153439154E-005
(PID.TID 0000.0001) generate Phyto: np =   10 mQyield    =  6.281455000000001E-005
(PID.TID 0000.0001) generate Phyto: np =   10 chl2cmax     =  0.390946625000000
(PID.TID 0000.0001) generate Phyto: np =   11 FIXED - no DIAZO
(PID.TID 0000.0001) generate Phyto: np =   11 Topt       =   1.89049600000000
(PID.TID 0000.0001) generate Phyto: np =   11 growthdays =  0.700000000000000
(PID.TID 0000.0001) generate Phyto: np =   11 pcmax    =  1.653439153439154E-005
(PID.TID 0000.0001) generate Phyto: np =   11 mQyield    =  1.475082750000000E-004
(PID.TID 0000.0001) generate Phyto: np =   11 chl2cmax     =  0.497375750000000
(PID.TID 0000.0001) generate Phyto: np =   12 FIXED - no DIAZO
(PID.TID 0000.0001) generate Phyto: np =   12 Topt       =   8.54888000000000
(PID.TID 0000.0001) generate Phyto: np =   12 growthdays =  0.700000000000000
(PID.TID 0000.0001) generate Phyto: np =   12 pcmax    =  1.653439153439154E-005
(PID.TID 0000.0001) generate Phyto: np =   12 mQyield    =  6.060647500000000E-005
(PID.TID 0000.0001) generate Phyto: np =   12 chl2cmax     =  0.307689425000000
(PID.TID 0000.0001) generate Phyto: np =   13 FIXED - no DIAZO
(PID.TID 0000.0001) generate Phyto: np =   13 Topt       =   28.8434080000000
(PID.TID 0000.0001) generate Phyto: np =   13 growthdays =  0.700000000000000
(PID.TID 0000.0001) generate Phyto: np =   13 pcmax    =  1.653439153439154E-005
(PID.TID 0000.0001) generate Phyto: np =   13 mQyield    =  6.003132500000000E-005
(PID.TID 0000.0001) generate Phyto: np =   13 chl2cmax     =  0.388174550000000
(PID.TID 0000.0001) generate Phyto: np =   14 FIXED - no DIAZO
(PID.TID 0000.0001) generate Phyto: np =   14 Topt       =  -1.44964800000000
(PID.TID 0000.0001) generate Phyto: np =   14 growthdays =  0.400000000000000
(PID.TID 0000.0001) generate Phyto: np =   14 pcmax    =  2.893518518518519E-005
(PID.TID 0000.0001) generate Phyto: np =   14 mQyield    =  3.769561000000000E-005
(PID.TID 0000.0001) generate Phyto: np =   14 chl2cmax     =  0.698040950000000
(PID.TID 0000.0001) generate Phyto: np =   15 FIXED - no DIAZO
(PID.TID 0000.0001) generate Phyto: np =   15 Topt       =   25.1114480000000
(PID.TID 0000.0001) generate Phyto: np =   15 growthdays =  0.700000000000000
(PID.TID 0000.0001) generate Phyto: np =   15 pcmax    =  1.653439153439154E-005
(PID.TID 0000.0001) generate Phyto: np =   15 mQyield    =  6.307355000000001E-005
(PID.TID 0000.0001) generate Phyto: np =   15 chl2cmax     =  0.256072625000000
(PID.TID 0000.0001) generate Phyto: np =   16 FIXED - no DIAZO
(PID.TID 0000.0001) generate Phyto: np =   16 Topt       =   18.3635360000000
(PID.TID 0000.0001) generate Phyto: np =   16 growthdays =  0.700000000000000
(PID.TID 0000.0001) generate Phyto: np =   16 pcmax    =  1.653439153439154E-005
(PID.TID 0000.0001) generate Phyto: np =   16 mQyield    =  9.146860000000000E-005
(PID.TID 0000.0001) generate Phyto: np =   16 chl2cmax     =  0.437105150000000
(PID.TID 0000.0001) generate Phyto: np =   17 FIXED - no DIAZO
(PID.TID 0000.0001) generate Phyto: np =   17 Topt       =   28.1710960000000
(PID.TID 0000.0001) generate Phyto: np =   17 growthdays =  0.700000000000000
(PID.TID 0000.0001) generate Phyto: np =   17 pcmax    =  1.653439153439154E-005
(PID.TID 0000.0001) generate Phyto: np =   17 mQyield    =  5.111850000000000E-005
(PID.TID 0000.0001) generate Phyto: np =   17 chl2cmax     =  0.354943550000000
(PID.TID 0000.0001) generate Phyto: np =   18 FIXED - no DIAZO
(PID.TID 0000.0001) generate Phyto: np =   18 Topt       =   19.9475600000000
(PID.TID 0000.0001) generate Phyto: np =   18 growthdays =  0.400000000000000
(PID.TID 0000.0001) generate Phyto: np =   18 pcmax    =  2.893518518518519E-005
(PID.TID 0000.0001) generate Phyto: np =   18 mQyield    =  5.975189000000000E-005
(PID.TID 0000.0001) generate Phyto: np =   18 chl2cmax     =  0.712357775000000
(PID.TID 0000.0001) generate Phyto: np =   19 FIXED - no DIAZO
(PID.TID 0000.0001) generate Phyto: np =   19 Topt       =   5.93120000000000
(PID.TID 0000.0001) generate Phyto: np =   19 growthdays =  0.400000000000000
(PID.TID 0000.0001) generate Phyto: np =   19 pcmax    =  2.893518518518519E-005
(PID.TID 0000.0001) generate Phyto: np =   19 mQyield    =  6.835166000000000E-005
(PID.TID 0000.0001) generate Phyto: np =   19 chl2cmax     =  0.690880025000000
(PID.TID 0000.0001) generate Phyto: np =   20 FIXED - no DIAZO
(PID.TID 0000.0001) generate Phyto: np =   20 Topt       =   14.4469040000000
(PID.TID 0000.0001) generate Phyto: np =   20 growthdays =  0.700000000000000
(PID.TID 0000.0001) generate Phyto: np =   20 pcmax    =  1.653439153439154E-005
(PID.TID 0000.0001) generate Phyto: np =   20 mQyield    =  7.764605000000000E-005
(PID.TID 0000.0001) generate Phyto: np =   20 chl2cmax     =  0.325120100000000
(PID.TID 0000.0001) generate Phyto: np =   21 FIXED - no DIAZO
(PID.TID 0000.0001) generate Phyto: np =   21 Topt       =  0.480744000000001
(PID.TID 0000.0001) generate Phyto: np =   21 growthdays =  0.700000000000000
(PID.TID 0000.0001) generate Phyto: np =   21 pcmax    =  1.653439153439154E-005
(PID.TID 0000.0001) generate Phyto: np =   21 mQyield    =  9.036637500000000E-005
(PID.TID 0000.0001) generate Phyto: np =   21 chl2cmax     =  0.327166475000000
(PID.TID 0000.0001) generate Phyto: np =   22 FIXED - no DIAZO
(PID.TID 0000.0001) generate Phyto: np =   22 Topt       =   11.0077440000000
(PID.TID 0000.0001) generate Phyto: np =   22 growthdays =  0.700000000000000
(PID.TID 0000.0001) generate Phyto: np =   22 pcmax    =  1.653439153439154E-005
(PID.TID 0000.0001) generate Phyto: np =   22 mQyield    =  1.096559000000000E-004
(PID.TID 0000.0001) generate Phyto: np =   22 chl2cmax     =  0.273726275000000
(PID.TID 0000.0001) generate Phyto: np =   23 FIXED - no DIAZO
(PID.TID 0000.0001) generate Phyto: np =   23 Topt       =   27.3438320000000
(PID.TID 0000.0001) generate Phyto: np =   23 growthdays =  0.700000000000000
(PID.TID 0000.0001) generate Phyto: np =   23 pcmax    =  1.653439153439154E-005
(PID.TID 0000.0001) generate Phyto: np =   23 mQyield    =  1.075426000000000E-004
(PID.TID 0000.0001) generate Phyto: np =   23 chl2cmax     =  0.368782775000000
(PID.TID 0000.0001) generate Phyto: np =   24 FIXED - no DIAZO
(PID.TID 0000.0001) generate Phyto: np =   24 Topt       =   11.4321920000000
(PID.TID 0000.0001) generate Phyto: np =   24 growthdays =  0.700000000000000
(PID.TID 0000.0001) generate Phyto: np =   24 pcmax    =  1.653439153439154E-005
(PID.TID 0000.0001) generate Phyto: np =   24 mQyield    =  9.055805000000000E-005
(PID.TID 0000.0001) generate Phyto: np =   24 chl2cmax     =  0.305867300000000
(PID.TID 0000.0001) generate Phyto: np =   25 FIXED - no DIAZO
(PID.TID 0000.0001) generate Phyto: np =   25 Topt       =   26.6920640000000
(PID.TID 0000.0001) generate Phyto: np =   25 growthdays =  0.400000000000000
(PID.TID 0000.0001) generate Phyto: np =   25 pcmax    =  2.893518518518519E-005
(PID.TID 0000.0001) generate Phyto: np =   25 mQyield    =  5.905370000000000E-005
(PID.TID 0000.0001) generate Phyto: np =   25 chl2cmax     =  0.670026950000000
(PID.TID 0000.0001) generate Phyto: np =   26 FIXED - no DIAZO
(PID.TID 0000.0001) generate Phyto: np =   26 Topt       =   24.0044000000000
(PID.TID 0000.0001) generate Phyto: np =   26 growthdays =  0.700000000000000
(PID.TID 0000.0001) generate Phyto: np =   26 pcmax    =  1.653439153439154E-005
(PID.TID 0000.0001) generate Phyto: np =   26 mQyield    =  9.552727500000001E-005
(PID.TID 0000.0001) generate Phyto: np =   26 chl2cmax     =  0.439647425000000
(PID.TID 0000.0001) generate Phyto: np =   27 FIXED - no DIAZO
(PID.TID 0000.0001) generate Phyto: np =   27 Topt       =   14.1750480000000
(PID.TID 0000.0001) generate Phyto: np =   27 growthdays =  0.400000000000000
(PID.TID 0000.0001) generate Phyto: np =   27 pcmax    =  2.893518518518519E-005
(PID.TID 0000.0001) generate Phyto: np =   27 mQyield    =  6.305770000000000E-005
(PID.TID 0000.0001) generate Phyto: np =   27 chl2cmax     =  0.725092250000000
(PID.TID 0000.0001) generate Phyto: np =   28 FIXED - no DIAZO
(PID.TID 0000.0001) generate Phyto: np =   28 Topt       =  -1.58868000000000
(PID.TID 0000.0001) generate Phyto: np =   28 growthdays =  0.700000000000000
(PID.TID 0000.0001) generate Phyto: np =   28 pcmax    =  1.653439153439154E-005
(PID.TID 0000.0001) generate Phyto: np =   28 mQyield    =  1.276314000000000E-004
(PID.TID 0000.0001) generate Phyto: np =   28 chl2cmax     =  0.430279400000000
(PID.TID 0000.0001) generate Phyto: np =   29 FIXED - no DIAZO
(PID.TID 0000.0001) generate Phyto: np =   29 Topt       =   11.8524880000000
(PID.TID 0000.0001) generate Phyto: np =   29 growthdays =  0.700000000000000
(PID.TID 0000.0001) generate Phyto: np =   29 pcmax    =  1.653439153439154E-005
(PID.TID 0000.0001) generate Phyto: np =   29 mQyield    =  1.434127500000000E-004
(PID.TID 0000.0001) generate Phyto: np =   29 chl2cmax     =  0.236824625000000
(PID.TID 0000.0001) generate Phyto: np =   30 FIXED - no DIAZO
(PID.TID 0000.0001) generate Phyto: np =   30 Topt       =   14.8990160000000
(PID.TID 0000.0001) generate Phyto: np =   30 growthdays =  0.700000000000000
(PID.TID 0000.0001) generate Phyto: np =   30 pcmax    =  1.653439153439154E-005
(PID.TID 0000.0001) generate Phyto: np =   30 mQyield    =  7.632915000000000E-005
(PID.TID 0000.0001) generate Phyto: np =   30 chl2cmax     =  0.452188550000000
(PID.TID 0000.0001) generate Phyto: np =   31 FIXED - no DIAZO
(PID.TID 0000.0001) generate Phyto: np =   31 Topt       =   2.40379200000000
(PID.TID 0000.0001) generate Phyto: np =   31 growthdays =  0.700000000000000
(PID.TID 0000.0001) generate Phyto: np =   31 pcmax    =  1.653439153439154E-005
(PID.TID 0000.0001) generate Phyto: np =   31 mQyield    =  6.336782500000000E-005
(PID.TID 0000.0001) generate Phyto: np =   31 chl2cmax     =  0.252306275000000
(PID.TID 0000.0001) generate Phyto: np =   32 FIXED - no DIAZO
(PID.TID 0000.0001) generate Phyto: np =   32 Topt       =   17.6087440000000
(PID.TID 0000.0001) generate Phyto: np =   32 growthdays =  0.700000000000000
(PID.TID 0000.0001) generate Phyto: np =   32 pcmax    =  1.653439153439154E-005
(PID.TID 0000.0001) generate Phyto: np =   32 mQyield    =  1.324418250000000E-004
(PID.TID 0000.0001) generate Phyto: np =   32 chl2cmax     =  0.459618350000000
(PID.TID 0000.0001) generate Phyto: np =   33 FIXED - no DIAZO
(PID.TID 0000.0001) generate Phyto: np =   33 Topt       =   11.0403360000000
(PID.TID 0000.0001) generate Phyto: np =   33 growthdays =  0.700000000000000
(PID.TID 0000.0001) generate Phyto: np =   33 pcmax    =  1.653439153439154E-005
(PID.TID 0000.0001) generate Phyto: np =   33 mQyield    =  1.017429250000000E-004
(PID.TID 0000.0001) generate Phyto: np =   33 chl2cmax     =  0.488060600000000
(PID.TID 0000.0001) generate Phyto: np =   34 FIXED - no DIAZO
(PID.TID 0000.0001) generate Phyto: np =   34 Topt       =   9.51728800000000
(PID.TID 0000.0001) generate Phyto: np =   34 growthdays =  0.700000000000000
(PID.TID 0000.0001) generate Phyto: np =   34 pcmax    =  1.653439153439154E-005
(PID.TID 0000.0001) generate Phyto: np =   34 mQyield    =  7.424565000000000E-005
(PID.TID 0000.0001) generate Phyto: np =   34 chl2cmax     =  0.210898325000000
(PID.TID 0000.0001) generate Phyto: np =   35 FIXED - no DIAZO
(PID.TID 0000.0001) generate Phyto: np =   35 Topt       =   12.5969040000000
(PID.TID 0000.0001) generate Phyto: np =   35 growthdays =  0.700000000000000
(PID.TID 0000.0001) generate Phyto: np =   35 pcmax    =  1.653439153439154E-005
(PID.TID 0000.0001) generate Phyto: np =   35 mQyield    =  6.508525000000001E-005
(PID.TID 0000.0001) generate Phyto: np =   35 chl2cmax     =  0.303295250000000
(PID.TID 0000.0001) generate Phyto: np =   36 FIXED - no DIAZO
(PID.TID 0000.0001) generate Phyto: np =   36 Topt       =   5.01864000000000
(PID.TID 0000.0001) generate Phyto: np =   36 growthdays =  0.700000000000000
(PID.TID 0000.0001) generate Phyto: np =   36 pcmax    =  1.653439153439154E-005
(PID.TID 0000.0001) generate Phyto: np =   36 mQyield    =  5.450192500000000E-005
(PID.TID 0000.0001) generate Phyto: np =   36 chl2cmax     =  0.315956750000000
(PID.TID 0000.0001) generate Phyto: np =   37 FIXED - no DIAZO
(PID.TID 0000.0001) generate Phyto: np =   37 Topt       =   11.1975280000000
(PID.TID 0000.0001) generate Phyto: np =   37 growthdays =  0.700000000000000
(PID.TID 0000.0001) generate Phyto: np =   37 pcmax    =  1.653439153439154E-005
(PID.TID 0000.0001) generate Phyto: np =   37 mQyield    =  9.942530000000001E-005
(PID.TID 0000.0001) generate Phyto: np =   37 chl2cmax     =  0.470316350000000
(PID.TID 0000.0001) generate Phyto: np =   38 FIXED - no DIAZO
(PID.TID 0000.0001) generate Phyto: np =   38 Topt       =   4.34009600000000
(PID.TID 0000.0001) generate Phyto: np =   38 growthdays =  0.700000000000000
(PID.TID 0000.0001) generate Phyto: np =   38 pcmax    =  1.653439153439154E-005
(PID.TID 0000.0001) generate Phyto: np =   38 mQyield    =  8.735395000000000E-005
(PID.TID 0000.0001) generate Phyto: np =   38 chl2cmax     =  0.457041725000000
(PID.TID 0000.0001) generate Phyto: np =   39 FIXED - no DIAZO
(PID.TID 0000.0001) generate Phyto: np =   39 Topt       =   10.1565680000000
(PID.TID 0000.0001) generate Phyto: np =   39 growthdays =  0.700000000000000
(PID.TID 0000.0001) generate Phyto: np =   39 pcmax    =  1.653439153439154E-005
(PID.TID 0000.0001) generate Phyto: np =   39 mQyield    =  9.979010000000000E-005
(PID.TID 0000.0001) generate Phyto: np =   39 chl2cmax     =  0.288107750000000
(PID.TID 0000.0001) generate Phyto: np =   40 FIXED - no DIAZO
(PID.TID 0000.0001) generate Phyto: np =   40 Topt       =   7.06787200000000
(PID.TID 0000.0001) generate Phyto: np =   40 growthdays =  0.700000000000000
(PID.TID 0000.0001) generate Phyto: np =   40 pcmax    =  1.653439153439154E-005
(PID.TID 0000.0001) generate Phyto: np =   40 mQyield    =  8.907412500000001E-005
(PID.TID 0000.0001) generate Phyto: np =   40 chl2cmax     =  0.466837550000000
(PID.TID 0000.0001) generate Phyto: np =   41 FIXED - no DIAZO
(PID.TID 0000.0001) generate Phyto: np =   41 Topt       =   22.7342080000000
(PID.TID 0000.0001) generate Phyto: np =   41 growthdays =  0.700000000000000
(PID.TID 0000.0001) generate Phyto: np =   41 pcmax    =  1.653439153439154E-005
(PID.TID 0000.0001) generate Phyto: np =   41 mQyield    =  7.068137500000000E-005
(PID.TID 0000.0001) generate Phyto: np =   41 chl2cmax     =  0.333326300000000
(PID.TID 0000.0001) generate Phyto: np =   42 FIXED - no DIAZO
(PID.TID 0000.0001) generate Phyto: np =   42 Topt       =   11.4231040000000
(PID.TID 0000.0001) generate Phyto: np =   42 growthdays =  0.700000000000000
(PID.TID 0000.0001) generate Phyto: np =   42 pcmax    =  1.653439153439154E-005
(PID.TID 0000.0001) generate Phyto: np =   42 mQyield    =  6.885155000000001E-005
(PID.TID 0000.0001) generate Phyto: np =   42 chl2cmax     =  0.285711875000000
(PID.TID 0000.0001) generate Phyto: np =   43 FIXED - no DIAZO
(PID.TID 0000.0001) generate Phyto: np =   43 Topt       =   2.01666400000000
(PID.TID 0000.0001) generate Phyto: np =   43 growthdays =  0.700000000000000
(PID.TID 0000.0001) generate Phyto: np =   43 pcmax    =  1.653439153439154E-005
(PID.TID 0000.0001) generate Phyto: np =   43 mQyield    =  1.087399250000000E-004
(PID.TID 0000.0001) generate Phyto: np =   43 chl2cmax     =  0.335301350000000
(PID.TID 0000.0001) generate Phyto: np =   44 FIXED - no DIAZO
(PID.TID 0000.0001) generate Phyto: np =   44 Topt       =   19.8240800000000
(PID.TID 0000.0001) generate Phyto: np =   44 growthdays =  0.700000000000000
(PID.TID 0000.0001) generate Phyto: np =   44 pcmax    =  1.653439153439154E-005
(PID.TID 0000.0001) generate Phyto: np =   44 mQyield    =  9.203367500000000E-005
(PID.TID 0000.0001) generate Phyto: np =   44 chl2cmax     =  0.451982525000000
(PID.TID 0000.0001) generate Phyto: np =   45 FIXED - no DIAZO
(PID.TID 0000.0001) generate Phyto: np =   45 Topt       =   18.4118800000000
(PID.TID 0000.0001) generate Phyto: np =   45 growthdays =  0.700000000000000
(PID.TID 0000.0001) generate Phyto: np =   45 pcmax    =  1.653439153439154E-005
(PID.TID 0000.0001) generate Phyto: np =   45 mQyield    =  1.179980500000000E-004
(PID.TID 0000.0001) generate Phyto: np =   45 chl2cmax     =  0.258823250000000
(PID.TID 0000.0001) generate Phyto: np =   46 FIXED - no DIAZO
(PID.TID 0000.0001) generate Phyto: np =   46 Topt       =   6.93585600000000
(PID.TID 0000.0001) generate Phyto: np =   46 growthdays =  0.700000000000000
(PID.TID 0000.0001) generate Phyto: np =   46 pcmax    =  1.653439153439154E-005
(PID.TID 0000.0001) generate Phyto: np =   46 mQyield    =  8.141565000000000E-005
(PID.TID 0000.0001) generate Phyto: np =   46 chl2cmax     =  0.231349325000000
(PID.TID 0000.0001) generate Phyto: np =   47 FIXED - no DIAZO
(PID.TID 0000.0001) generate Phyto: np =   47 Topt       =   22.5314640000000
(PID.TID 0000.0001) generate Phyto: np =   47 growthdays =  0.400000000000000
(PID.TID 0000.0001) generate Phyto: np =   47 pcmax    =  2.893518518518519E-005
(PID.TID 0000.0001) generate Phyto: np =   47 mQyield    =  4.475972000000000E-005
(PID.TID 0000.0001) generate Phyto: np =   47 chl2cmax     =  0.665979425000000
(PID.TID 0000.0001) generate Phyto: np =   48 FIXED - no DIAZO
(PID.TID 0000.0001) generate Phyto: np =   48 Topt       =   13.7982000000000
(PID.TID 0000.0001) generate Phyto: np =   48 growthdays =  0.700000000000000
(PID.TID 0000.0001) generate Phyto: np =   48 pcmax    =  1.653439153439154E-005
(PID.TID 0000.0001) generate Phyto: np =   48 mQyield    =  1.272338250000000E-004
(PID.TID 0000.0001) generate Phyto: np =   48 chl2cmax     =  0.259427525000000
(PID.TID 0000.0001) generate Phyto: np =   49 FIXED - no DIAZO
(PID.TID 0000.0001) generate Phyto: np =   49 Topt       =   22.6691360000000
(PID.TID 0000.0001) generate Phyto: np =   49 growthdays =  0.400000000000000
(PID.TID 0000.0001) generate Phyto: np =   49 pcmax    =  2.893518518518519E-005
(PID.TID 0000.0001) generate Phyto: np =   49 mQyield    =  6.733235000000000E-005
(PID.TID 0000.0001) generate Phyto: np =   49 chl2cmax     =  0.540862025000000
(PID.TID 0000.0001) generate Phyto: np =   50 FIXED - no DIAZO
(PID.TID 0000.0001) generate Phyto: np =   50 Topt       =   16.4760720000000
(PID.TID 0000.0001) generate Phyto: np =   50 growthdays =  0.700000000000000
(PID.TID 0000.0001) generate Phyto: np =   50 pcmax    =  1.653439153439154E-005
(PID.TID 0000.0001) generate Phyto: np =   50 mQyield    =  6.092040000000000E-005
(PID.TID 0000.0001) generate Phyto: np =   50 chl2cmax     =  0.290014625000000
(PID.TID 0000.0001) generate Phyto: np =   51 FIXED - no DIAZO
(PID.TID 0000.0001) generate Phyto: np =   51 Topt       =   14.2668960000000
(PID.TID 0000.0001) generate Phyto: np =   51 growthdays =  0.700000000000000
(PID.TID 0000.0001) generate Phyto: np =   51 pcmax    =  1.653439153439154E-005
(PID.TID 0000.0001) generate Phyto: np =   51 mQyield    =  1.104419000000000E-004
(PID.TID 0000.0001) generate Phyto: np =   51 chl2cmax     =  0.295133900000000
(PID.TID 0000.0001) generate Phyto: np =   52 FIXED - no DIAZO
(PID.TID 0000.0001) generate Phyto: np =   52 Topt       =   27.9000320000000
(PID.TID 0000.0001) generate Phyto: np =   52 growthdays =  0.400000000000000
(PID.TID 0000.0001) generate Phyto: np =   52 pcmax    =  2.893518518518519E-005
(PID.TID 0000.0001) generate Phyto: np =   52 mQyield    =  5.173555000000000E-005
(PID.TID 0000.0001) generate Phyto: np =   52 chl2cmax     =  0.746292800000000
(PID.TID 0000.0001) generate Phyto: np =   53 FIXED - no DIAZO
(PID.TID 0000.0001) generate Phyto: np =   53 Topt       =   28.4852880000000
(PID.TID 0000.0001) generate Phyto: np =   53 growthdays =  0.700000000000000
(PID.TID 0000.0001) generate Phyto: np =   53 pcmax    =  1.653439153439154E-005
(PID.TID 0000.0001) generate Phyto: np =   53 mQyield    =  9.566290000000000E-005
(PID.TID 0000.0001) generate Phyto: np =   53 chl2cmax     =  0.418174625000000
(PID.TID 0000.0001) generate Phyto: np =   54 FIXED - no DIAZO
(PID.TID 0000.0001) generate Phyto: np =   54 Topt       =   10.5571360000000
(PID.TID 0000.0001) generate Phyto: np =   54 growthdays =  0.700000000000000
(PID.TID 0000.0001) generate Phyto: np =   54 pcmax    =  1.653439153439154E-005
(PID.TID 0000.0001) generate Phyto: np =   54 mQyield    =  1.361231500000000E-004
(PID.TID 0000.0001) generate Phyto: np =   54 chl2cmax     =  0.452697950000000
(PID.TID 0000.0001) generate Phyto: np =   55 FIXED - no DIAZO
(PID.TID 0000.0001) generate Phyto: np =   55 Topt       =   3.80619200000000
(PID.TID 0000.0001) generate Phyto: np =   55 growthdays =  0.400000000000000
(PID.TID 0000.0001) generate Phyto: np =   55 pcmax    =  2.893518518518519E-005
(PID.TID 0000.0001) generate Phyto: np =   55 mQyield    =  6.285194000000000E-005
(PID.TID 0000.0001) generate Phyto: np =   55 chl2cmax     =  0.518611250000000
(PID.TID 0000.0001) generate Phyto: np =   56 FIXED - no DIAZO
(PID.TID 0000.0001) generate Phyto: np =   56 Topt       =   22.4931440000000
(PID.TID 0000.0001) generate Phyto: np =   56 growthdays =  0.400000000000000
(PID.TID 0000.0001) generate Phyto: np =   56 pcmax    =  2.893518518518519E-005
(PID.TID 0000.0001) generate Phyto: np =   56 mQyield    =  4.668831000000001E-005
(PID.TID 0000.0001) generate Phyto: np =   56 chl2cmax     =  0.578082800000000
(PID.TID 0000.0001) generate Phyto: np =   57 FIXED - no DIAZO
(PID.TID 0000.0001) generate Phyto: np =   57 Topt       =   3.14100800000000
(PID.TID 0000.0001) generate Phyto: np =   57 growthdays =  0.700000000000000
(PID.TID 0000.0001) generate Phyto: np =   57 pcmax    =  1.653439153439154E-005
(PID.TID 0000.0001) generate Phyto: np =   57 mQyield    =  8.452172500000000E-005
(PID.TID 0000.0001) generate Phyto: np =   57 chl2cmax     =  0.268552400000000
(PID.TID 0000.0001) generate Phyto: np =   58 FIXED - no DIAZO
(PID.TID 0000.0001) generate Phyto: np =   58 Topt       =   8.78100800000000
(PID.TID 0000.0001) generate Phyto: np =   58 growthdays =  0.700000000000000
(PID.TID 0000.0001) generate Phyto: np =   58 pcmax    =  1.653439153439154E-005
(PID.TID 0000.0001) generate Phyto: np =   58 mQyield    =  5.634137500000000E-005
(PID.TID 0000.0001) generate Phyto: np =   58 chl2cmax     =  0.222745625000000
(PID.TID 0000.0001) generate Phyto: np =   59 FIXED - no DIAZO
(PID.TID 0000.0001) generate Phyto: np =   59 Topt       =   22.7951440000000
(PID.TID 0000.0001) generate Phyto: np =   59 growthdays =  0.400000000000000
(PID.TID 0000.0001) generate Phyto: np =   59 pcmax    =  2.893518518518519E-005
(PID.TID 0000.0001) generate Phyto: np =   59 mQyield    =  3.521936000000000E-005
(PID.TID 0000.0001) generate Phyto: np =   59 chl2cmax     =  0.739442825000000
(PID.TID 0000.0001) generate Phyto: np =   60 FIXED - no DIAZO
(PID.TID 0000.0001) generate Phyto: np =   60 Topt       =   26.7499040000000
(PID.TID 0000.0001) generate Phyto: np =   60 growthdays =  0.700000000000000
(PID.TID 0000.0001) generate Phyto: np =   60 pcmax    =  1.653439153439154E-005
(PID.TID 0000.0001) generate Phyto: np =   60 mQyield    =  9.919682500000000E-005
(PID.TID 0000.0001) generate Phyto: np =   60 chl2cmax     =  0.202577450000000
(PID.TID 0000.0001) generate Phyto: np =   61 FIXED - no DIAZO
(PID.TID 0000.0001) generate Phyto: np =   61 Topt       =   16.2094160000000
(PID.TID 0000.0001) generate Phyto: np =   61 growthdays =  0.700000000000000
(PID.TID 0000.0001) generate Phyto: np =   61 pcmax    =  1.653439153439154E-005
(PID.TID 0000.0001) generate Phyto: np =   61 mQyield    =  1.328746500000000E-004
(PID.TID 0000.0001) generate Phyto: np =   61 chl2cmax     =  0.318463325000000
(PID.TID 0000.0001) generate Phyto: np =   62 FIXED - no DIAZO
(PID.TID 0000.0001) generate Phyto: np =   62 Topt       =   28.1498160000000
(PID.TID 0000.0001) generate Phyto: np =   62 growthdays =  0.400000000000000
(PID.TID 0000.0001) generate Phyto: np =   62 pcmax    =  2.893518518518519E-005
(PID.TID 0000.0001) generate Phyto: np =   62 mQyield    =  3.934278000000000E-005
(PID.TID 0000.0001) generate Phyto: np =   62 chl2cmax     =  0.781972850000000
(PID.TID 0000.0001) generate Phyto: np =   63 FIXED - no DIAZO
(PID.TID 0000.0001) generate Phyto: np =   63 Topt       =   27.7961040000000
(PID.TID 0000.0001) generate Phyto: np =   63 growthdays =  0.700000000000000
(PID.TID 0000.0001) generate Phyto: np =   63 pcmax    =  1.653439153439154E-005
(PID.TID 0000.0001) generate Phyto: np =   63 mQyield    =  1.200136750000000E-004
(PID.TID 0000.0001) generate Phyto: np =   63 chl2cmax     =  0.433779500000000
(PID.TID 0000.0001) generate Phyto: np =   64 FIXED - no DIAZO
(PID.TID 0000.0001) generate Phyto: np =   64 Topt       =   17.2867120000000
(PID.TID 0000.0001) generate Phyto: np =   64 growthdays =  0.700000000000000
(PID.TID 0000.0001) generate Phyto: np =   64 pcmax    =  1.653439153439154E-005
(PID.TID 0000.0001) generate Phyto: np =   64 mQyield    =  1.159881250000000E-004
(PID.TID 0000.0001) generate Phyto: np =   64 chl2cmax     =  0.418345700000000
(PID.TID 0000.0001) generate Phyto: np =   65 FIXED - no DIAZO
(PID.TID 0000.0001) generate Phyto: np =   65 Topt       =   3.95822400000000
(PID.TID 0000.0001) generate Phyto: np =   65 growthdays =  0.700000000000000
(PID.TID 0000.0001) generate Phyto: np =   65 pcmax    =  1.653439153439154E-005
(PID.TID 0000.0001) generate Phyto: np =   65 mQyield    =  5.887847500000000E-005
(PID.TID 0000.0001) generate Phyto: np =   65 chl2cmax     =  0.261159425000000
(PID.TID 0000.0001) generate Phyto: np =   66 FIXED - no DIAZO
(PID.TID 0000.0001) generate Phyto: np =   66 Topt       = -0.690296000000000
(PID.TID 0000.0001) generate Phyto: np =   66 growthdays =  0.400000000000000
(PID.TID 0000.0001) generate Phyto: np =   66 pcmax    =  2.893518518518519E-005
(PID.TID 0000.0001) generate Phyto: np =   66 mQyield    =  4.356194000000000E-005
(PID.TID 0000.0001) generate Phyto: np =   66 chl2cmax     =  0.756469250000000
(PID.TID 0000.0001) generate Phyto: np =   67 FIXED - no DIAZO
(PID.TID 0000.0001) generate Phyto: np =   67 Topt       =   11.1707600000000
(PID.TID 0000.0001) generate Phyto: np =   67 growthdays =  0.700000000000000
(PID.TID 0000.0001) generate Phyto: np =   67 pcmax    =  1.653439153439154E-005
(PID.TID 0000.0001) generate Phyto: np =   67 mQyield    =  9.427175000000000E-005
(PID.TID 0000.0001) generate Phyto: np =   67 chl2cmax     =  0.326234750000000
(PID.TID 0000.0001) generate Phyto: np =   68 FIXED - no DIAZO
(PID.TID 0000.0001) generate Phyto: np =   68 Topt       =   24.0021360000000
(PID.TID 0000.0001) generate Phyto: np =   68 growthdays =  0.700000000000000
(PID.TID 0000.0001) generate Phyto: np =   68 pcmax    =  1.653439153439154E-005
(PID.TID 0000.0001) generate Phyto: np =   68 mQyield    =  1.391859750000000E-004
(PID.TID 0000.0001) generate Phyto: np =   68 chl2cmax     =  0.400415675000000
(PID.TID 0000.0001) generate Phyto: np =   69 FIXED - no DIAZO
(PID.TID 0000.0001) generate Phyto: np =   69 Topt       = -0.372999999999998
(PID.TID 0000.0001) generate Phyto: np =   69 growthdays =  0.700000000000000
(PID.TID 0000.0001) generate Phyto: np =   69 pcmax    =  1.653439153439154E-005
(PID.TID 0000.0001) generate Phyto: np =   69 mQyield    =  1.299860000000000E-004
(PID.TID 0000.0001) generate Phyto: np =   69 chl2cmax     =  0.421378250000000
(PID.TID 0000.0001) generate Phyto: np =   70 FIXED - no DIAZO
(PID.TID 0000.0001) generate Phyto: np =   70 Topt       =   29.3240400000000
(PID.TID 0000.0001) generate Phyto: np =   70 growthdays =  0.700000000000000
(PID.TID 0000.0001) generate Phyto: np =   70 pcmax    =  1.653439153439154E-005
(PID.TID 0000.0001) generate Phyto: np =   70 mQyield    =  1.373008000000000E-004
(PID.TID 0000.0001) generate Phyto: np =   70 chl2cmax     =  0.394217225000000
(PID.TID 0000.0001) generate Phyto: np =   71 FIXED - no DIAZO
(PID.TID 0000.0001) generate Phyto: np =   71 Topt       =   14.4380960000000
(PID.TID 0000.0001) generate Phyto: np =   71 growthdays =  0.700000000000000
(PID.TID 0000.0001) generate Phyto: np =   71 pcmax    =  1.653439153439154E-005
(PID.TID 0000.0001) generate Phyto: np =   71 mQyield    =  7.005165000000000E-005
(PID.TID 0000.0001) generate Phyto: np =   71 chl2cmax     =  0.458469275000000
(PID.TID 0000.0001) generate Phyto: np =   72 FIXED - no DIAZO
(PID.TID 0000.0001) generate Phyto: np =   72 Topt       =   24.0503360000000
(PID.TID 0000.0001) generate Phyto: np =   72 growthdays =  0.700000000000000
(PID.TID 0000.0001) generate Phyto: np =   72 pcmax    =  1.653439153439154E-005
(PID.TID 0000.0001) generate Phyto: np =   72 mQyield    =  9.624447499999999E-005
(PID.TID 0000.0001) generate Phyto: np =   72 chl2cmax     =  0.287571350000000
(PID.TID 0000.0001) generate Phyto: np =   73 FIXED - no DIAZO
(PID.TID 0000.0001) generate Phyto: np =   73 Topt       =   7.81365600000000
(PID.TID 0000.0001) generate Phyto: np =   73 growthdays =  0.700000000000000
(PID.TID 0000.0001) generate Phyto: np =   73 pcmax    =  1.653439153439154E-005
(PID.TID 0000.0001) generate Phyto: np =   73 mQyield    =  1.331984250000000E-004
(PID.TID 0000.0001) generate Phyto: np =   73 chl2cmax     =  0.437409425000000
(PID.TID 0000.0001) generate Phyto: np =   74 FIXED - no DIAZO
(PID.TID 0000.0001) generate Phyto: np =   74 Topt       =   16.3567760000000
(PID.TID 0000.0001) generate Phyto: np =   74 growthdays =  0.700000000000000
(PID.TID 0000.0001) generate Phyto: np =   74 pcmax    =  1.653439153439154E-005
(PID.TID 0000.0001) generate Phyto: np =   74 mQyield    =  1.262042750000000E-004
(PID.TID 0000.0001) generate Phyto: np =   74 chl2cmax     =  0.279063350000000
(PID.TID 0000.0001) generate Phyto: np =   75 FIXED - no DIAZO
(PID.TID 0000.0001) generate Phyto: np =   75 Topt       =   13.6136400000000
(PID.TID 0000.0001) generate Phyto: np =   75 growthdays =  0.700000000000000
(PID.TID 0000.0001) generate Phyto: np =   75 pcmax    =  1.653439153439154E-005
(PID.TID 0000.0001) generate Phyto: np =   75 mQyield    =  9.768922500000000E-005
(PID.TID 0000.0001) generate Phyto: np =   75 chl2cmax     =  0.324318950000000
(PID.TID 0000.0001) generate Phyto: np =   76 FIXED - no DIAZO
(PID.TID 0000.0001) generate Phyto: np =   76 Topt       =   14.4243200000000
(PID.TID 0000.0001) generate Phyto: np =   76 growthdays =  0.700000000000000
(PID.TID 0000.0001) generate Phyto: np =   76 pcmax    =  1.653439153439154E-005
(PID.TID 0000.0001) generate Phyto: np =   76 mQyield    =  1.397087750000000E-004
(PID.TID 0000.0001) generate Phyto: np =   76 chl2cmax     =  0.395459675000000
(PID.TID 0000.0001) generate Phyto: np =   77 FIXED - no DIAZO
(PID.TID 0000.0001) generate Phyto: np =   77 Topt       =  0.898032000000001
(PID.TID 0000.0001) generate Phyto: np =   77 growthdays =  0.700000000000000
(PID.TID 0000.0001) generate Phyto: np =   77 pcmax    =  1.653439153439154E-005
(PID.TID 0000.0001) generate Phyto: np =   77 mQyield    =  1.040847750000000E-004
(PID.TID 0000.0001) generate Phyto: np =   77 chl2cmax     =  0.469068425000000
(PID.TID 0000.0001) generate Phyto: np =   78 FIXED - no DIAZO
(PID.TID 0000.0001) generate Phyto: np =   78 Topt       =   20.1306400000000
(PID.TID 0000.0001) generate Phyto: np =   78 growthdays =  0.400000000000000
(PID.TID 0000.0001) generate Phyto: np =   78 pcmax    =  2.893518518518519E-005
(PID.TID 0000.0001) generate Phyto: np =   78 mQyield    =  5.037154000000000E-005
(PID.TID 0000.0001) generate Phyto: np =   78 chl2cmax     =  0.536699900000000
(PID.TID 0000.0001) QQ start timeave
(PID.TID 0000.0001) // =======================================================
(PID.TID 0000.0001) // Darwin init variables >>> END <<<
(PID.TID 0000.0001) // =======================================================
(PID.TID 0000.0001) // =======================================================
(PID.TID 0000.0001) // Model current state
(PID.TID 0000.0001) // =======================================================
(PID.TID 0000.0001) 
(PID.TID 0000.0001) // =======================================================
(PID.TID 0000.0001) // Begin MONITOR dynamic field statistics
(PID.TID 0000.0001) // =======================================================
(PID.TID 0000.0001) %MON time_tsnumber                =                     0
(PID.TID 0000.0001) %MON time_secondsf                =   0.0000000000000E+00
(PID.TID 0000.0001) %MON dynstat_eta_max              =   0.0000000000000E+00
(PID.TID 0000.0001) %MON dynstat_eta_min              =   0.0000000000000E+00
(PID.TID 0000.0001) %MON dynstat_eta_mean             =   0.0000000000000E+00
(PID.TID 0000.0001) %MON dynstat_eta_sd               =   0.0000000000000E+00
(PID.TID 0000.0001) %MON dynstat_eta_del2             =   0.0000000000000E+00
(PID.TID 0000.0001) %MON dynstat_uvel_max             =   0.0000000000000E+00
(PID.TID 0000.0001) %MON dynstat_uvel_min             =   0.0000000000000E+00
(PID.TID 0000.0001) %MON dynstat_uvel_mean            =   0.0000000000000E+00
(PID.TID 0000.0001) %MON dynstat_uvel_sd              =   0.0000000000000E+00
(PID.TID 0000.0001) %MON dynstat_uvel_del2            =   0.0000000000000E+00
(PID.TID 0000.0001) %MON dynstat_vvel_max             =   0.0000000000000E+00
(PID.TID 0000.0001) %MON dynstat_vvel_min             =   0.0000000000000E+00
(PID.TID 0000.0001) %MON dynstat_vvel_mean            =   0.0000000000000E+00
(PID.TID 0000.0001) %MON dynstat_vvel_sd              =   0.0000000000000E+00
(PID.TID 0000.0001) %MON dynstat_vvel_del2            =   0.0000000000000E+00
(PID.TID 0000.0001) %MON dynstat_wvel_max             =   0.0000000000000E+00
(PID.TID 0000.0001) %MON dynstat_wvel_min             =   0.0000000000000E+00
(PID.TID 0000.0001) %MON dynstat_wvel_mean            =   0.0000000000000E+00
(PID.TID 0000.0001) %MON dynstat_wvel_sd              =   0.0000000000000E+00
(PID.TID 0000.0001) %MON dynstat_wvel_del2            =   0.0000000000000E+00
(PID.TID 0000.0001) %MON dynstat_theta_max            =   2.6345800399780E+01
(PID.TID 0000.0001) %MON dynstat_theta_min            =   2.6737000942230E+00
(PID.TID 0000.0001) %MON dynstat_theta_mean           =   5.4735936027058E+00
(PID.TID 0000.0001) %MON dynstat_theta_sd             =   5.1972090828105E+00
(PID.TID 0000.0001) %MON dynstat_theta_del2           =   0.0000000000000E+00
(PID.TID 0000.0001) %MON dynstat_salt_max             =   3.5000000000000E+01
(PID.TID 0000.0001) %MON dynstat_salt_min             =   3.5000000000000E+01
(PID.TID 0000.0001) %MON dynstat_salt_mean            =   3.5000000000000E+01
(PID.TID 0000.0001) %MON dynstat_salt_sd              =   7.1054273576010E-15
(PID.TID 0000.0001) %MON dynstat_salt_del2            =   0.0000000000000E+00
(PID.TID 0000.0001) %MON dynstat_sst_max              =   2.6345800399780E+01
(PID.TID 0000.0001) %MON dynstat_sst_min              =   2.6345800399780E+01
(PID.TID 0000.0001) %MON dynstat_sst_mean             =   2.6345800399780E+01
(PID.TID 0000.0001) %MON dynstat_sst_sd               =   0.0000000000000E+00
(PID.TID 0000.0001) %MON dynstat_sst_del2             =   0.0000000000000E+00
(PID.TID 0000.0001) %MON dynstat_sss_max              =   3.5000000000000E+01
(PID.TID 0000.0001) %MON dynstat_sss_min              =   3.5000000000000E+01
(PID.TID 0000.0001) %MON dynstat_sss_mean             =   3.5000000000000E+01
(PID.TID 0000.0001) %MON dynstat_sss_sd               =   0.0000000000000E+00
(PID.TID 0000.0001) %MON dynstat_sss_del2             =   0.0000000000000E+00
(PID.TID 0000.0001) %MON extforcing_qnet_max          =   0.0000000000000E+00
(PID.TID 0000.0001) %MON extforcing_qnet_min          =   0.0000000000000E+00
(PID.TID 0000.0001) %MON extforcing_qnet_mean         =   0.0000000000000E+00
(PID.TID 0000.0001) %MON extforcing_qnet_sd           =   0.0000000000000E+00
(PID.TID 0000.0001) %MON extforcing_qnet_del2         =   0.0000000000000E+00
(PID.TID 0000.0001) %MON extforcing_qsw_max           =   0.0000000000000E+00
(PID.TID 0000.0001) %MON extforcing_qsw_min           =   0.0000000000000E+00
(PID.TID 0000.0001) %MON extforcing_qsw_mean          =   0.0000000000000E+00
(PID.TID 0000.0001) %MON extforcing_qsw_sd            =   0.0000000000000E+00
(PID.TID 0000.0001) %MON extforcing_qsw_del2          =   0.0000000000000E+00
(PID.TID 0000.0001) %MON extforcing_empmr_max         =   0.0000000000000E+00
(PID.TID 0000.0001) %MON extforcing_empmr_min         =   0.0000000000000E+00
(PID.TID 0000.0001) %MON extforcing_empmr_mean        =   0.0000000000000E+00
(PID.TID 0000.0001) %MON extforcing_empmr_sd          =   0.0000000000000E+00
(PID.TID 0000.0001) %MON extforcing_empmr_del2        =   0.0000000000000E+00
(PID.TID 0000.0001) %MON extforcing_fu_max            =   0.0000000000000E+00
(PID.TID 0000.0001) %MON extforcing_fu_min            =   0.0000000000000E+00
(PID.TID 0000.0001) %MON extforcing_fu_mean           =   0.0000000000000E+00
(PID.TID 0000.0001) %MON extforcing_fu_sd             =   0.0000000000000E+00
(PID.TID 0000.0001) %MON extforcing_fu_del2           =   0.0000000000000E+00
(PID.TID 0000.0001) %MON extforcing_fv_max            =   0.0000000000000E+00
(PID.TID 0000.0001) %MON extforcing_fv_min            =   0.0000000000000E+00
(PID.TID 0000.0001) %MON extforcing_fv_mean           =   0.0000000000000E+00
(PID.TID 0000.0001) %MON extforcing_fv_sd             =   0.0000000000000E+00
(PID.TID 0000.0001) %MON extforcing_fv_del2           =   0.0000000000000E+00
(PID.TID 0000.0001) %MON advcfl_uvel_max              =   0.0000000000000E+00
(PID.TID 0000.0001) %MON advcfl_vvel_max              =   0.0000000000000E+00
(PID.TID 0000.0001) %MON advcfl_wvel_max              =   0.0000000000000E+00
(PID.TID 0000.0001) %MON advcfl_W_hf_max              =   0.0000000000000E+00
(PID.TID 0000.0001) %MON pe_b_mean                    =   0.0000000000000E+00
(PID.TID 0000.0001) %MON ke_max                       =   0.0000000000000E+00
(PID.TID 0000.0001) %MON ke_mean                      =   0.0000000000000E+00
(PID.TID 0000.0001) %MON ke_vol                       =   4.1199767883485E+13
(PID.TID 0000.0001) %MON vort_r_min                   =   0.0000000000000E+00
(PID.TID 0000.0001) %MON vort_r_max                   =   0.0000000000000E+00
(PID.TID 0000.0001) %MON vort_a_mean                  =  -4.5067801836625E-05
(PID.TID 0000.0001) %MON vort_a_sd                    =  -4.1359030627651E-25
(PID.TID 0000.0001) %MON vort_p_mean                  =  -4.5067801836625E-05
(PID.TID 0000.0001) %MON vort_p_sd                    =   0.0000000000000E+00
(PID.TID 0000.0001) %MON surfExpan_theta_mean         =   0.0000000000000E+00
(PID.TID 0000.0001) %MON surfExpan_salt_mean          =   0.0000000000000E+00
(PID.TID 0000.0001) // =======================================================
(PID.TID 0000.0001) // End MONITOR dynamic field statistics
(PID.TID 0000.0001) // =======================================================
(PID.TID 0000.0001) // =======================================================
(PID.TID 0000.0001) // Begin MONITOR ptracer field statistics
(PID.TID 0000.0001) // =======================================================
(PID.TID 0000.0001) %MON trcstat_ptracer01_max        =   2.2437000274658E+00
(PID.TID 0000.0001) %MON trcstat_ptracer01_min        =   2.1024999022484E-01
(PID.TID 0000.0001) %MON trcstat_ptracer01_mean       =   1.5821337454309E+00
(PID.TID 0000.0001) %MON trcstat_ptracer01_sd         =   4.6735065681380E-01
(PID.TID 0000.0001) %MON trcstat_ptracer01_del2       =   0.0000000000000E+00
(PID.TID 0000.0001) %MON trcstat_ptracer02_max        =   3.3903499603271E+01
(PID.TID 0000.0001) %MON trcstat_ptracer02_min        =   4.6300001442432E-02
(PID.TID 0000.0001) %MON trcstat_ptracer02_mean       =   2.3502389802218E+01
(PID.TID 0000.0001) %MON trcstat_ptracer02_sd         =   7.8162030599381E+00
(PID.TID 0000.0001) %MON trcstat_ptracer02_del2       =   0.0000000000000E+00
(PID.TID 0000.0001) %MON trcstat_ptracer03_max        =   1.3000000035390E-03
(PID.TID 0000.0001) %MON trcstat_ptracer03_min        =   1.3000000035390E-03
(PID.TID 0000.0001) %MON trcstat_ptracer03_mean       =   1.3000000035390E-03
(PID.TID 0000.0001) %MON trcstat_ptracer03_sd         =   0.0000000000000E+00
(PID.TID 0000.0001) %MON trcstat_ptracer03_del2       =   0.0000000000000E+00
(PID.TID 0000.0001) %MON trcstat_ptracer04_max        =   3.9387401580811E+01
(PID.TID 0000.0001) %MON trcstat_ptracer04_min        =   1.2247999906540E+00
(PID.TID 0000.0001) %MON trcstat_ptracer04_mean       =   2.9621888811155E+01
(PID.TID 0000.0001) %MON trcstat_ptracer04_sd         =   1.1270588565469E+01
(PID.TID 0000.0001) %MON trcstat_ptracer04_del2       =   0.0000000000000E+00
(PID.TID 0000.0001) %MON trcstat_ptracer05_max        =   5.1134419627488E-03
(PID.TID 0000.0001) %MON trcstat_ptracer05_min        =   0.0000000000000E+00
(PID.TID 0000.0001) %MON trcstat_ptracer05_mean       =   2.1473529209187E-04
(PID.TID 0000.0001) %MON trcstat_ptracer05_sd         =   9.2442155098050E-04
(PID.TID 0000.0001) %MON trcstat_ptracer05_del2       =   0.0000000000000E+00
(PID.TID 0000.0001) %MON trcstat_ptracer06_max        =   8.1815071403980E-02
(PID.TID 0000.0001) %MON trcstat_ptracer06_min        =   0.0000000000000E+00
(PID.TID 0000.0001) %MON trcstat_ptracer06_mean       =   3.4357646734700E-03
(PID.TID 0000.0001) %MON trcstat_ptracer06_sd         =   1.4790744815688E-02
(PID.TID 0000.0001) %MON trcstat_ptracer06_del2       =   0.0000000000000E+00
(PID.TID 0000.0001) %MON trcstat_ptracer07_max        =   5.1134416025889E-06
(PID.TID 0000.0001) %MON trcstat_ptracer07_min        =   0.0000000000000E+00
(PID.TID 0000.0001) %MON trcstat_ptracer07_mean       =   2.1473529239838E-07
(PID.TID 0000.0001) %MON trcstat_ptracer07_sd         =   9.2442155063872E-07
(PID.TID 0000.0001) %MON trcstat_ptracer07_del2       =   0.0000000000000E+00
(PID.TID 0000.0001) %MON trcstat_ptracer08_max        =   1.0360708957435E-09
(PID.TID 0000.0001) %MON trcstat_ptracer08_min        =   0.0000000000000E+00
(PID.TID 0000.0001) %MON trcstat_ptracer08_mean       =   1.3701999921416E-10
(PID.TID 0000.0001) %MON trcstat_ptracer08_sd         =   2.5061738948910E-10
(PID.TID 0000.0001) %MON trcstat_ptracer08_del2       =   0.0000000000000E+00
(PID.TID 0000.0001) %MON trcstat_ptracer09_max        =   1.6577134331897E-08
(PID.TID 0000.0001) %MON trcstat_ptracer09_min        =   0.0000000000000E+00
(PID.TID 0000.0001) %MON trcstat_ptracer09_mean       =   2.1923199874266E-09
(PID.TID 0000.0001) %MON trcstat_ptracer09_sd         =   4.0098782318255E-09
(PID.TID 0000.0001) %MON trcstat_ptracer09_del2       =   0.0000000000000E+00
(PID.TID 0000.0001) %MON trcstat_ptracer10_max        =   1.0360708601817E-12
(PID.TID 0000.0001) %MON trcstat_ptracer10_min        =   0.0000000000000E+00
(PID.TID 0000.0001) %MON trcstat_ptracer10_mean       =   1.3701999017052E-13
(PID.TID 0000.0001) %MON trcstat_ptracer10_sd         =   2.5061737519455E-13
(PID.TID 0000.0001) %MON trcstat_ptracer10_del2       =   0.0000000000000E+00
(PID.TID 0000.0001) %MON trcstat_ptracer11_max        =   4.2543990552701E-09
(PID.TID 0000.0001) %MON trcstat_ptracer11_min        =   0.0000000000000E+00
(PID.TID 0000.0001) %MON trcstat_ptracer11_mean       =   5.1571246209822E-10
(PID.TID 0000.0001) %MON trcstat_ptracer11_sd         =   1.0378771735623E-09
(PID.TID 0000.0001) %MON trcstat_ptracer11_del2       =   0.0000000000000E+00
(PID.TID 0000.0001) %MON trcstat_ptracer12_max        =   1.0360708957435E-09
(PID.TID 0000.0001) %MON trcstat_ptracer12_min        =   0.0000000000000E+00
(PID.TID 0000.0001) %MON trcstat_ptracer12_mean       =   1.3701999921416E-10
(PID.TID 0000.0001) %MON trcstat_ptracer12_sd         =   2.5061738948910E-10
(PID.TID 0000.0001) %MON trcstat_ptracer12_del2       =   0.0000000000000E+00
(PID.TID 0000.0001) %MON trcstat_ptracer13_max        =   1.6577134331897E-08
(PID.TID 0000.0001) %MON trcstat_ptracer13_min        =   0.0000000000000E+00
(PID.TID 0000.0001) %MON trcstat_ptracer13_mean       =   2.1923199874266E-09
(PID.TID 0000.0001) %MON trcstat_ptracer13_sd         =   4.0098782318255E-09
(PID.TID 0000.0001) %MON trcstat_ptracer13_del2       =   0.0000000000000E+00
(PID.TID 0000.0001) %MON trcstat_ptracer14_max        =   1.0360708601817E-12
(PID.TID 0000.0001) %MON trcstat_ptracer14_min        =   0.0000000000000E+00
(PID.TID 0000.0001) %MON trcstat_ptracer14_mean       =   1.3701999017052E-13
(PID.TID 0000.0001) %MON trcstat_ptracer14_sd         =   2.5061737519455E-13
(PID.TID 0000.0001) %MON trcstat_ptracer14_del2       =   0.0000000000000E+00
(PID.TID 0000.0001) %MON trcstat_ptracer15_max        =   4.2543990552701E-09
(PID.TID 0000.0001) %MON trcstat_ptracer15_min        =   0.0000000000000E+00
(PID.TID 0000.0001) %MON trcstat_ptracer15_mean       =   5.1571246209822E-10
(PID.TID 0000.0001) %MON trcstat_ptracer15_sd         =   1.0378771735623E-09
(PID.TID 0000.0001) %MON trcstat_ptracer15_del2       =   0.0000000000000E+00
(PID.TID 0000.0001) %MON trcstat_ptracer16_max        =   2.7246939134784E-04
(PID.TID 0000.0001) %MON trcstat_ptracer16_min        =   1.1728604931704E-06
(PID.TID 0000.0001) %MON trcstat_ptracer16_mean       =   7.8931833963575E-05
(PID.TID 0000.0001) %MON trcstat_ptracer16_sd         =   9.6634603938663E-05
(PID.TID 0000.0001) %MON trcstat_ptracer16_del2       =   0.0000000000000E+00
(PID.TID 0000.0001) %MON trcstat_ptracer17_max        =   4.3595102615654E-03
(PID.TID 0000.0001) %MON trcstat_ptracer17_min        =   1.8765767890727E-05
(PID.TID 0000.0001) %MON trcstat_ptracer17_mean       =   1.2629093434172E-03
(PID.TID 0000.0001) %MON trcstat_ptracer17_sd         =   1.5461536630186E-03
(PID.TID 0000.0001) %MON trcstat_ptracer17_del2       =   0.0000000000000E+00
(PID.TID 0000.0001) %MON trcstat_ptracer18_max        =   2.7246940703662E-07
(PID.TID 0000.0001) %MON trcstat_ptracer18_min        =   1.1728603643846E-09
(PID.TID 0000.0001) %MON trcstat_ptracer18_mean       =   7.8931834490195E-08
(PID.TID 0000.0001) %MON trcstat_ptracer18_sd         =   9.6634605997273E-08
(PID.TID 0000.0001) %MON trcstat_ptracer18_del2       =   0.0000000000000E+00
(PID.TID 0000.0001) %MON trcstat_ptracer19_max        =   1.6253039240837E-02
(PID.TID 0000.0001) %MON trcstat_ptracer19_min        =   1.1382005177438E-03
(PID.TID 0000.0001) %MON trcstat_ptracer19_mean       =   5.4894673427532E-03
(PID.TID 0000.0001) %MON trcstat_ptracer19_sd         =   5.1731692661236E-03
(PID.TID 0000.0001) %MON trcstat_ptracer19_del2       =   0.0000000000000E+00
(PID.TID 0000.0001) %MON trcstat_ptracer20_max        =   2.5584036484361E-02
(PID.TID 0000.0001) %MON trcstat_ptracer20_min        =   1.8763074649542E-07
(PID.TID 0000.0001) %MON trcstat_ptracer20_mean       =   6.0352662496819E-04
(PID.TID 0000.0001) %MON trcstat_ptracer20_sd         =   3.2425361014468E-03
(PID.TID 0000.0001) %MON trcstat_ptracer20_del2       =   0.0000000000000E+00
(PID.TID 0000.0001) %MON trcstat_ptracer21_max        =   1.8258459866047E-02
(PID.TID 0000.0001) %MON trcstat_ptracer21_min        =   3.8796779335826E-06
(PID.TID 0000.0001) %MON trcstat_ptracer21_mean       =   6.0474443227462E-04
(PID.TID 0000.0001) %MON trcstat_ptracer21_sd         =   1.9428680890593E-03
(PID.TID 0000.0001) %MON trcstat_ptracer21_del2       =   0.0000000000000E+00
(PID.TID 0000.0001) %MON trcstat_ptracer22_max        =   7.3461555984977E-06
(PID.TID 0000.0001) %MON trcstat_ptracer22_min        =   0.0000000000000E+00
(PID.TID 0000.0001) %MON trcstat_ptracer22_mean       =   2.1904083196854E-07
(PID.TID 0000.0001) %MON trcstat_ptracer22_sd         =   1.1483912396179E-06
(PID.TID 0000.0001) %MON trcstat_ptracer22_del2       =   0.0000000000000E+00
(PID.TID 0000.0001) %MON trcstat_ptracer23_max        =   7.3461555984977E-06
(PID.TID 0000.0001) %MON trcstat_ptracer23_min        =   0.0000000000000E+00
(PID.TID 0000.0001) %MON trcstat_ptracer23_mean       =   2.1904083196854E-07
(PID.TID 0000.0001) %MON trcstat_ptracer23_sd         =   1.1483912396179E-06
(PID.TID 0000.0001) %MON trcstat_ptracer23_del2       =   0.0000000000000E+00
(PID.TID 0000.0001) %MON trcstat_ptracer24_max        =   7.3461555984977E-06
(PID.TID 0000.0001) %MON trcstat_ptracer24_min        =   0.0000000000000E+00
(PID.TID 0000.0001) %MON trcstat_ptracer24_mean       =   2.1904083196854E-07
(PID.TID 0000.0001) %MON trcstat_ptracer24_sd         =   1.1483912396179E-06
(PID.TID 0000.0001) %MON trcstat_ptracer24_del2       =   0.0000000000000E+00
(PID.TID 0000.0001) %MON trcstat_ptracer25_max        =   7.3461555984977E-06
(PID.TID 0000.0001) %MON trcstat_ptracer25_min        =   0.0000000000000E+00
(PID.TID 0000.0001) %MON trcstat_ptracer25_mean       =   2.1904083196854E-07
(PID.TID 0000.0001) %MON trcstat_ptracer25_sd         =   1.1483912396179E-06
(PID.TID 0000.0001) %MON trcstat_ptracer25_del2       =   0.0000000000000E+00
(PID.TID 0000.0001) %MON trcstat_ptracer26_max        =   7.3461555984977E-06
(PID.TID 0000.0001) %MON trcstat_ptracer26_min        =   0.0000000000000E+00
(PID.TID 0000.0001) %MON trcstat_ptracer26_mean       =   2.1904083196854E-07
(PID.TID 0000.0001) %MON trcstat_ptracer26_sd         =   1.1483912396179E-06
(PID.TID 0000.0001) %MON trcstat_ptracer26_del2       =   0.0000000000000E+00
(PID.TID 0000.0001) %MON trcstat_ptracer27_max        =   7.3461555984977E-06
(PID.TID 0000.0001) %MON trcstat_ptracer27_min        =   0.0000000000000E+00
(PID.TID 0000.0001) %MON trcstat_ptracer27_mean       =   2.1904083196854E-07
(PID.TID 0000.0001) %MON trcstat_ptracer27_sd         =   1.1483912396179E-06
(PID.TID 0000.0001) %MON trcstat_ptracer27_del2       =   0.0000000000000E+00
(PID.TID 0000.0001) %MON trcstat_ptracer28_max        =   7.3461555984977E-06
(PID.TID 0000.0001) %MON trcstat_ptracer28_min        =   0.0000000000000E+00
(PID.TID 0000.0001) %MON trcstat_ptracer28_mean       =   2.1904083196854E-07
(PID.TID 0000.0001) %MON trcstat_ptracer28_sd         =   1.1483912396179E-06
(PID.TID 0000.0001) %MON trcstat_ptracer28_del2       =   0.0000000000000E+00
(PID.TID 0000.0001) %MON trcstat_ptracer29_max        =   7.3461555984977E-06
(PID.TID 0000.0001) %MON trcstat_ptracer29_min        =   0.0000000000000E+00
(PID.TID 0000.0001) %MON trcstat_ptracer29_mean       =   2.1904083196854E-07
(PID.TID 0000.0001) %MON trcstat_ptracer29_sd         =   1.1483912396179E-06
(PID.TID 0000.0001) %MON trcstat_ptracer29_del2       =   0.0000000000000E+00
(PID.TID 0000.0001) %MON trcstat_ptracer30_max        =   7.3461555984977E-06
(PID.TID 0000.0001) %MON trcstat_ptracer30_min        =   0.0000000000000E+00
(PID.TID 0000.0001) %MON trcstat_ptracer30_mean       =   2.1904083196854E-07
(PID.TID 0000.0001) %MON trcstat_ptracer30_sd         =   1.1483912396179E-06
(PID.TID 0000.0001) %MON trcstat_ptracer30_del2       =   0.0000000000000E+00
(PID.TID 0000.0001) %MON trcstat_ptracer31_max        =   7.3461555984977E-06
(PID.TID 0000.0001) %MON trcstat_ptracer31_min        =   0.0000000000000E+00
(PID.TID 0000.0001) %MON trcstat_ptracer31_mean       =   2.1904083196854E-07
(PID.TID 0000.0001) %MON trcstat_ptracer31_sd         =   1.1483912396179E-06
(PID.TID 0000.0001) %MON trcstat_ptracer31_del2       =   0.0000000000000E+00
(PID.TID 0000.0001) %MON trcstat_ptracer32_max        =   7.3461555984977E-06
(PID.TID 0000.0001) %MON trcstat_ptracer32_min        =   0.0000000000000E+00
(PID.TID 0000.0001) %MON trcstat_ptracer32_mean       =   2.1904083196854E-07
(PID.TID 0000.0001) %MON trcstat_ptracer32_sd         =   1.1483912396179E-06
(PID.TID 0000.0001) %MON trcstat_ptracer32_del2       =   0.0000000000000E+00
(PID.TID 0000.0001) %MON trcstat_ptracer33_max        =   7.3461555984977E-06
(PID.TID 0000.0001) %MON trcstat_ptracer33_min        =   0.0000000000000E+00
(PID.TID 0000.0001) %MON trcstat_ptracer33_mean       =   2.1904083196854E-07
(PID.TID 0000.0001) %MON trcstat_ptracer33_sd         =   1.1483912396179E-06
(PID.TID 0000.0001) %MON trcstat_ptracer33_del2       =   0.0000000000000E+00
(PID.TID 0000.0001) %MON trcstat_ptracer34_max        =   7.3461555984977E-06
(PID.TID 0000.0001) %MON trcstat_ptracer34_min        =   0.0000000000000E+00
(PID.TID 0000.0001) %MON trcstat_ptracer34_mean       =   2.1904083196854E-07
(PID.TID 0000.0001) %MON trcstat_ptracer34_sd         =   1.1483912396179E-06
(PID.TID 0000.0001) %MON trcstat_ptracer34_del2       =   0.0000000000000E+00
(PID.TID 0000.0001) %MON trcstat_ptracer35_max        =   7.3461555984977E-06
(PID.TID 0000.0001) %MON trcstat_ptracer35_min        =   0.0000000000000E+00
(PID.TID 0000.0001) %MON trcstat_ptracer35_mean       =   2.1904083196854E-07
(PID.TID 0000.0001) %MON trcstat_ptracer35_sd         =   1.1483912396179E-06
(PID.TID 0000.0001) %MON trcstat_ptracer35_del2       =   0.0000000000000E+00
(PID.TID 0000.0001) %MON trcstat_ptracer36_max        =   7.3461555984977E-06
(PID.TID 0000.0001) %MON trcstat_ptracer36_min        =   0.0000000000000E+00
(PID.TID 0000.0001) %MON trcstat_ptracer36_mean       =   2.1904083196854E-07
(PID.TID 0000.0001) %MON trcstat_ptracer36_sd         =   1.1483912396179E-06
(PID.TID 0000.0001) %MON trcstat_ptracer36_del2       =   0.0000000000000E+00
(PID.TID 0000.0001) %MON trcstat_ptracer37_max        =   7.3461555984977E-06
(PID.TID 0000.0001) %MON trcstat_ptracer37_min        =   0.0000000000000E+00
(PID.TID 0000.0001) %MON trcstat_ptracer37_mean       =   2.1904083196854E-07
(PID.TID 0000.0001) %MON trcstat_ptracer37_sd         =   1.1483912396179E-06
(PID.TID 0000.0001) %MON trcstat_ptracer37_del2       =   0.0000000000000E+00
(PID.TID 0000.0001) %MON trcstat_ptracer38_max        =   7.3461555984977E-06
(PID.TID 0000.0001) %MON trcstat_ptracer38_min        =   0.0000000000000E+00
(PID.TID 0000.0001) %MON trcstat_ptracer38_mean       =   2.1904083196854E-07
(PID.TID 0000.0001) %MON trcstat_ptracer38_sd         =   1.1483912396179E-06
(PID.TID 0000.0001) %MON trcstat_ptracer38_del2       =   0.0000000000000E+00
(PID.TID 0000.0001) %MON trcstat_ptracer39_max        =   7.3461555984977E-06
(PID.TID 0000.0001) %MON trcstat_ptracer39_min        =   0.0000000000000E+00
(PID.TID 0000.0001) %MON trcstat_ptracer39_mean       =   2.1904083196854E-07
(PID.TID 0000.0001) %MON trcstat_ptracer39_sd         =   1.1483912396179E-06
(PID.TID 0000.0001) %MON trcstat_ptracer39_del2       =   0.0000000000000E+00
(PID.TID 0000.0001) %MON trcstat_ptracer40_max        =   7.3461555984977E-06
(PID.TID 0000.0001) %MON trcstat_ptracer40_min        =   0.0000000000000E+00
(PID.TID 0000.0001) %MON trcstat_ptracer40_mean       =   2.1904083196854E-07
(PID.TID 0000.0001) %MON trcstat_ptracer40_sd         =   1.1483912396179E-06
(PID.TID 0000.0001) %MON trcstat_ptracer40_del2       =   0.0000000000000E+00
(PID.TID 0000.0001) %MON trcstat_ptracer41_max        =   7.3461555984977E-06
(PID.TID 0000.0001) %MON trcstat_ptracer41_min        =   0.0000000000000E+00
(PID.TID 0000.0001) %MON trcstat_ptracer41_mean       =   2.1904083196854E-07
(PID.TID 0000.0001) %MON trcstat_ptracer41_sd         =   1.1483912396179E-06
(PID.TID 0000.0001) %MON trcstat_ptracer41_del2       =   0.0000000000000E+00
(PID.TID 0000.0001) %MON trcstat_ptracer42_max        =   7.3461555984977E-06
(PID.TID 0000.0001) %MON trcstat_ptracer42_min        =   0.0000000000000E+00
(PID.TID 0000.0001) %MON trcstat_ptracer42_mean       =   2.1904083196854E-07
(PID.TID 0000.0001) %MON trcstat_ptracer42_sd         =   1.1483912396179E-06
(PID.TID 0000.0001) %MON trcstat_ptracer42_del2       =   0.0000000000000E+00
(PID.TID 0000.0001) %MON trcstat_ptracer43_max        =   7.3461555984977E-06
(PID.TID 0000.0001) %MON trcstat_ptracer43_min        =   0.0000000000000E+00
(PID.TID 0000.0001) %MON trcstat_ptracer43_mean       =   2.1904083196854E-07
(PID.TID 0000.0001) %MON trcstat_ptracer43_sd         =   1.1483912396179E-06
(PID.TID 0000.0001) %MON trcstat_ptracer43_del2       =   0.0000000000000E+00
(PID.TID 0000.0001) %MON trcstat_ptracer44_max        =   7.3461555984977E-06
(PID.TID 0000.0001) %MON trcstat_ptracer44_min        =   0.0000000000000E+00
(PID.TID 0000.0001) %MON trcstat_ptracer44_mean       =   2.1904083196854E-07
(PID.TID 0000.0001) %MON trcstat_ptracer44_sd         =   1.1483912396179E-06
(PID.TID 0000.0001) %MON trcstat_ptracer44_del2       =   0.0000000000000E+00
(PID.TID 0000.0001) %MON trcstat_ptracer45_max        =   7.3461555984977E-06
(PID.TID 0000.0001) %MON trcstat_ptracer45_min        =   0.0000000000000E+00
(PID.TID 0000.0001) %MON trcstat_ptracer45_mean       =   2.1904083196854E-07
(PID.TID 0000.0001) %MON trcstat_ptracer45_sd         =   1.1483912396179E-06
(PID.TID 0000.0001) %MON trcstat_ptracer45_del2       =   0.0000000000000E+00
(PID.TID 0000.0001) %MON trcstat_ptracer46_max        =   7.3461555984977E-06
(PID.TID 0000.0001) %MON trcstat_ptracer46_min        =   0.0000000000000E+00
(PID.TID 0000.0001) %MON trcstat_ptracer46_mean       =   2.1904083196854E-07
(PID.TID 0000.0001) %MON trcstat_ptracer46_sd         =   1.1483912396179E-06
(PID.TID 0000.0001) %MON trcstat_ptracer46_del2       =   0.0000000000000E+00
(PID.TID 0000.0001) %MON trcstat_ptracer47_max        =   7.3461555984977E-06
(PID.TID 0000.0001) %MON trcstat_ptracer47_min        =   0.0000000000000E+00
(PID.TID 0000.0001) %MON trcstat_ptracer47_mean       =   2.1904083196854E-07
(PID.TID 0000.0001) %MON trcstat_ptracer47_sd         =   1.1483912396179E-06
(PID.TID 0000.0001) %MON trcstat_ptracer47_del2       =   0.0000000000000E+00
(PID.TID 0000.0001) %MON trcstat_ptracer48_max        =   7.3461555984977E-06
(PID.TID 0000.0001) %MON trcstat_ptracer48_min        =   0.0000000000000E+00
(PID.TID 0000.0001) %MON trcstat_ptracer48_mean       =   2.1904083196854E-07
(PID.TID 0000.0001) %MON trcstat_ptracer48_sd         =   1.1483912396179E-06
(PID.TID 0000.0001) %MON trcstat_ptracer48_del2       =   0.0000000000000E+00
(PID.TID 0000.0001) %MON trcstat_ptracer49_max        =   7.3461555984977E-06
(PID.TID 0000.0001) %MON trcstat_ptracer49_min        =   0.0000000000000E+00
(PID.TID 0000.0001) %MON trcstat_ptracer49_mean       =   2.1904083196854E-07
(PID.TID 0000.0001) %MON trcstat_ptracer49_sd         =   1.1483912396179E-06
(PID.TID 0000.0001) %MON trcstat_ptracer49_del2       =   0.0000000000000E+00
(PID.TID 0000.0001) %MON trcstat_ptracer50_max        =   7.3461555984977E-06
(PID.TID 0000.0001) %MON trcstat_ptracer50_min        =   0.0000000000000E+00
(PID.TID 0000.0001) %MON trcstat_ptracer50_mean       =   2.1904083196854E-07
(PID.TID 0000.0001) %MON trcstat_ptracer50_sd         =   1.1483912396179E-06
(PID.TID 0000.0001) %MON trcstat_ptracer50_del2       =   0.0000000000000E+00
(PID.TID 0000.0001) %MON trcstat_ptracer51_max        =   7.3461555984977E-06
(PID.TID 0000.0001) %MON trcstat_ptracer51_min        =   0.0000000000000E+00
(PID.TID 0000.0001) %MON trcstat_ptracer51_mean       =   2.1904083196854E-07
(PID.TID 0000.0001) %MON trcstat_ptracer51_sd         =   1.1483912396179E-06
(PID.TID 0000.0001) %MON trcstat_ptracer51_del2       =   0.0000000000000E+00
(PID.TID 0000.0001) %MON trcstat_ptracer52_max        =   7.3461555984977E-06
(PID.TID 0000.0001) %MON trcstat_ptracer52_min        =   0.0000000000000E+00
(PID.TID 0000.0001) %MON trcstat_ptracer52_mean       =   2.1904083196854E-07
(PID.TID 0000.0001) %MON trcstat_ptracer52_sd         =   1.1483912396179E-06
(PID.TID 0000.0001) %MON trcstat_ptracer52_del2       =   0.0000000000000E+00
(PID.TID 0000.0001) %MON trcstat_ptracer53_max        =   7.3461555984977E-06
(PID.TID 0000.0001) %MON trcstat_ptracer53_min        =   0.0000000000000E+00
(PID.TID 0000.0001) %MON trcstat_ptracer53_mean       =   2.1904083196854E-07
(PID.TID 0000.0001) %MON trcstat_ptracer53_sd         =   1.1483912396179E-06
(PID.TID 0000.0001) %MON trcstat_ptracer53_del2       =   0.0000000000000E+00
(PID.TID 0000.0001) %MON trcstat_ptracer54_max        =   7.3461555984977E-06
(PID.TID 0000.0001) %MON trcstat_ptracer54_min        =   0.0000000000000E+00
(PID.TID 0000.0001) %MON trcstat_ptracer54_mean       =   2.1904083196854E-07
(PID.TID 0000.0001) %MON trcstat_ptracer54_sd         =   1.1483912396179E-06
(PID.TID 0000.0001) %MON trcstat_ptracer54_del2       =   0.0000000000000E+00
(PID.TID 0000.0001) %MON trcstat_ptracer55_max        =   7.3461555984977E-06
(PID.TID 0000.0001) %MON trcstat_ptracer55_min        =   0.0000000000000E+00
(PID.TID 0000.0001) %MON trcstat_ptracer55_mean       =   2.1904083196854E-07
(PID.TID 0000.0001) %MON trcstat_ptracer55_sd         =   1.1483912396179E-06
(PID.TID 0000.0001) %MON trcstat_ptracer55_del2       =   0.0000000000000E+00
(PID.TID 0000.0001) %MON trcstat_ptracer56_max        =   7.3461555984977E-06
(PID.TID 0000.0001) %MON trcstat_ptracer56_min        =   0.0000000000000E+00
(PID.TID 0000.0001) %MON trcstat_ptracer56_mean       =   2.1904083196854E-07
(PID.TID 0000.0001) %MON trcstat_ptracer56_sd         =   1.1483912396179E-06
(PID.TID 0000.0001) %MON trcstat_ptracer56_del2       =   0.0000000000000E+00
(PID.TID 0000.0001) %MON trcstat_ptracer57_max        =   7.3461555984977E-06
(PID.TID 0000.0001) %MON trcstat_ptracer57_min        =   0.0000000000000E+00
(PID.TID 0000.0001) %MON trcstat_ptracer57_mean       =   2.1904083196854E-07
(PID.TID 0000.0001) %MON trcstat_ptracer57_sd         =   1.1483912396179E-06
(PID.TID 0000.0001) %MON trcstat_ptracer57_del2       =   0.0000000000000E+00
(PID.TID 0000.0001) %MON trcstat_ptracer58_max        =   7.3461555984977E-06
(PID.TID 0000.0001) %MON trcstat_ptracer58_min        =   0.0000000000000E+00
(PID.TID 0000.0001) %MON trcstat_ptracer58_mean       =   2.1904083196854E-07
(PID.TID 0000.0001) %MON trcstat_ptracer58_sd         =   1.1483912396179E-06
(PID.TID 0000.0001) %MON trcstat_ptracer58_del2       =   0.0000000000000E+00
(PID.TID 0000.0001) %MON trcstat_ptracer59_max        =   7.3461555984977E-06
(PID.TID 0000.0001) %MON trcstat_ptracer59_min        =   0.0000000000000E+00
(PID.TID 0000.0001) %MON trcstat_ptracer59_mean       =   2.1904083196854E-07
(PID.TID 0000.0001) %MON trcstat_ptracer59_sd         =   1.1483912396179E-06
(PID.TID 0000.0001) %MON trcstat_ptracer59_del2       =   0.0000000000000E+00
(PID.TID 0000.0001) %MON trcstat_ptracer60_max        =   7.3461555984977E-06
(PID.TID 0000.0001) %MON trcstat_ptracer60_min        =   0.0000000000000E+00
(PID.TID 0000.0001) %MON trcstat_ptracer60_mean       =   2.1904083196854E-07
(PID.TID 0000.0001) %MON trcstat_ptracer60_sd         =   1.1483912396179E-06
(PID.TID 0000.0001) %MON trcstat_ptracer60_del2       =   0.0000000000000E+00
(PID.TID 0000.0001) %MON trcstat_ptracer61_max        =   7.3461555984977E-06
(PID.TID 0000.0001) %MON trcstat_ptracer61_min        =   0.0000000000000E+00
(PID.TID 0000.0001) %MON trcstat_ptracer61_mean       =   2.1904083196854E-07
(PID.TID 0000.0001) %MON trcstat_ptracer61_sd         =   1.1483912396179E-06
(PID.TID 0000.0001) %MON trcstat_ptracer61_del2       =   0.0000000000000E+00
(PID.TID 0000.0001) %MON trcstat_ptracer62_max        =   7.3461555984977E-06
(PID.TID 0000.0001) %MON trcstat_ptracer62_min        =   0.0000000000000E+00
(PID.TID 0000.0001) %MON trcstat_ptracer62_mean       =   2.1904083196854E-07
(PID.TID 0000.0001) %MON trcstat_ptracer62_sd         =   1.1483912396179E-06
(PID.TID 0000.0001) %MON trcstat_ptracer62_del2       =   0.0000000000000E+00
(PID.TID 0000.0001) %MON trcstat_ptracer63_max        =   7.3461555984977E-06
(PID.TID 0000.0001) %MON trcstat_ptracer63_min        =   0.0000000000000E+00
(PID.TID 0000.0001) %MON trcstat_ptracer63_mean       =   2.1904083196854E-07
(PID.TID 0000.0001) %MON trcstat_ptracer63_sd         =   1.1483912396179E-06
(PID.TID 0000.0001) %MON trcstat_ptracer63_del2       =   0.0000000000000E+00
(PID.TID 0000.0001) %MON trcstat_ptracer64_max        =   7.3461555984977E-06
(PID.TID 0000.0001) %MON trcstat_ptracer64_min        =   0.0000000000000E+00
(PID.TID 0000.0001) %MON trcstat_ptracer64_mean       =   2.1904083196854E-07
(PID.TID 0000.0001) %MON trcstat_ptracer64_sd         =   1.1483912396179E-06
(PID.TID 0000.0001) %MON trcstat_ptracer64_del2       =   0.0000000000000E+00
(PID.TID 0000.0001) %MON trcstat_ptracer65_max        =   7.3461555984977E-06
(PID.TID 0000.0001) %MON trcstat_ptracer65_min        =   0.0000000000000E+00
(PID.TID 0000.0001) %MON trcstat_ptracer65_mean       =   2.1904083196854E-07
(PID.TID 0000.0001) %MON trcstat_ptracer65_sd         =   1.1483912396179E-06
(PID.TID 0000.0001) %MON trcstat_ptracer65_del2       =   0.0000000000000E+00
(PID.TID 0000.0001) %MON trcstat_ptracer66_max        =   7.3461555984977E-06
(PID.TID 0000.0001) %MON trcstat_ptracer66_min        =   0.0000000000000E+00
(PID.TID 0000.0001) %MON trcstat_ptracer66_mean       =   2.1904083196854E-07
(PID.TID 0000.0001) %MON trcstat_ptracer66_sd         =   1.1483912396179E-06
(PID.TID 0000.0001) %MON trcstat_ptracer66_del2       =   0.0000000000000E+00
(PID.TID 0000.0001) %MON trcstat_ptracer67_max        =   7.3461555984977E-06
(PID.TID 0000.0001) %MON trcstat_ptracer67_min        =   0.0000000000000E+00
(PID.TID 0000.0001) %MON trcstat_ptracer67_mean       =   2.1904083196854E-07
(PID.TID 0000.0001) %MON trcstat_ptracer67_sd         =   1.1483912396179E-06
(PID.TID 0000.0001) %MON trcstat_ptracer67_del2       =   0.0000000000000E+00
(PID.TID 0000.0001) %MON trcstat_ptracer68_max        =   7.3461555984977E-06
(PID.TID 0000.0001) %MON trcstat_ptracer68_min        =   0.0000000000000E+00
(PID.TID 0000.0001) %MON trcstat_ptracer68_mean       =   2.1904083196854E-07
(PID.TID 0000.0001) %MON trcstat_ptracer68_sd         =   1.1483912396179E-06
(PID.TID 0000.0001) %MON trcstat_ptracer68_del2       =   0.0000000000000E+00
(PID.TID 0000.0001) %MON trcstat_ptracer69_max        =   7.3461555984977E-06
(PID.TID 0000.0001) %MON trcstat_ptracer69_min        =   0.0000000000000E+00
(PID.TID 0000.0001) %MON trcstat_ptracer69_mean       =   2.1904083196854E-07
(PID.TID 0000.0001) %MON trcstat_ptracer69_sd         =   1.1483912396179E-06
(PID.TID 0000.0001) %MON trcstat_ptracer69_del2       =   0.0000000000000E+00
(PID.TID 0000.0001) %MON trcstat_ptracer70_max        =   7.3461555984977E-06
(PID.TID 0000.0001) %MON trcstat_ptracer70_min        =   0.0000000000000E+00
(PID.TID 0000.0001) %MON trcstat_ptracer70_mean       =   2.1904083196854E-07
(PID.TID 0000.0001) %MON trcstat_ptracer70_sd         =   1.1483912396179E-06
(PID.TID 0000.0001) %MON trcstat_ptracer70_del2       =   0.0000000000000E+00
(PID.TID 0000.0001) %MON trcstat_ptracer71_max        =   7.3461555984977E-06
(PID.TID 0000.0001) %MON trcstat_ptracer71_min        =   0.0000000000000E+00
(PID.TID 0000.0001) %MON trcstat_ptracer71_mean       =   2.1904083196854E-07
(PID.TID 0000.0001) %MON trcstat_ptracer71_sd         =   1.1483912396179E-06
(PID.TID 0000.0001) %MON trcstat_ptracer71_del2       =   0.0000000000000E+00
(PID.TID 0000.0001) %MON trcstat_ptracer72_max        =   7.3461555984977E-06
(PID.TID 0000.0001) %MON trcstat_ptracer72_min        =   0.0000000000000E+00
(PID.TID 0000.0001) %MON trcstat_ptracer72_mean       =   2.1904083196854E-07
(PID.TID 0000.0001) %MON trcstat_ptracer72_sd         =   1.1483912396179E-06
(PID.TID 0000.0001) %MON trcstat_ptracer72_del2       =   0.0000000000000E+00
(PID.TID 0000.0001) %MON trcstat_ptracer73_max        =   7.3461555984977E-06
(PID.TID 0000.0001) %MON trcstat_ptracer73_min        =   0.0000000000000E+00
(PID.TID 0000.0001) %MON trcstat_ptracer73_mean       =   2.1904083196854E-07
(PID.TID 0000.0001) %MON trcstat_ptracer73_sd         =   1.1483912396179E-06
(PID.TID 0000.0001) %MON trcstat_ptracer73_del2       =   0.0000000000000E+00
(PID.TID 0000.0001) %MON trcstat_ptracer74_max        =   7.3461555984977E-06
(PID.TID 0000.0001) %MON trcstat_ptracer74_min        =   0.0000000000000E+00
(PID.TID 0000.0001) %MON trcstat_ptracer74_mean       =   2.1904083196854E-07
(PID.TID 0000.0001) %MON trcstat_ptracer74_sd         =   1.1483912396179E-06
(PID.TID 0000.0001) %MON trcstat_ptracer74_del2       =   0.0000000000000E+00
(PID.TID 0000.0001) %MON trcstat_ptracer75_max        =   7.3461555984977E-06
(PID.TID 0000.0001) %MON trcstat_ptracer75_min        =   0.0000000000000E+00
(PID.TID 0000.0001) %MON trcstat_ptracer75_mean       =   2.1904083196854E-07
(PID.TID 0000.0001) %MON trcstat_ptracer75_sd         =   1.1483912396179E-06
(PID.TID 0000.0001) %MON trcstat_ptracer75_del2       =   0.0000000000000E+00
(PID.TID 0000.0001) %MON trcstat_ptracer76_max        =   7.3461555984977E-06
(PID.TID 0000.0001) %MON trcstat_ptracer76_min        =   0.0000000000000E+00
(PID.TID 0000.0001) %MON trcstat_ptracer76_mean       =   2.1904083196854E-07
(PID.TID 0000.0001) %MON trcstat_ptracer76_sd         =   1.1483912396179E-06
(PID.TID 0000.0001) %MON trcstat_ptracer76_del2       =   0.0000000000000E+00
(PID.TID 0000.0001) %MON trcstat_ptracer77_max        =   7.3461555984977E-06
(PID.TID 0000.0001) %MON trcstat_ptracer77_min        =   0.0000000000000E+00
(PID.TID 0000.0001) %MON trcstat_ptracer77_mean       =   2.1904083196854E-07
(PID.TID 0000.0001) %MON trcstat_ptracer77_sd         =   1.1483912396179E-06
(PID.TID 0000.0001) %MON trcstat_ptracer77_del2       =   0.0000000000000E+00
(PID.TID 0000.0001) %MON trcstat_ptracer78_max        =   7.3461555984977E-06
(PID.TID 0000.0001) %MON trcstat_ptracer78_min        =   0.0000000000000E+00
(PID.TID 0000.0001) %MON trcstat_ptracer78_mean       =   2.1904083196854E-07
(PID.TID 0000.0001) %MON trcstat_ptracer78_sd         =   1.1483912396179E-06
(PID.TID 0000.0001) %MON trcstat_ptracer78_del2       =   0.0000000000000E+00
(PID.TID 0000.0001) %MON trcstat_ptracer79_max        =   7.3461555984977E-06
(PID.TID 0000.0001) %MON trcstat_ptracer79_min        =   0.0000000000000E+00
(PID.TID 0000.0001) %MON trcstat_ptracer79_mean       =   2.1904083196854E-07
(PID.TID 0000.0001) %MON trcstat_ptracer79_sd         =   1.1483912396179E-06
(PID.TID 0000.0001) %MON trcstat_ptracer79_del2       =   0.0000000000000E+00
(PID.TID 0000.0001) %MON trcstat_ptracer80_max        =   7.3461555984977E-06
(PID.TID 0000.0001) %MON trcstat_ptracer80_min        =   0.0000000000000E+00
(PID.TID 0000.0001) %MON trcstat_ptracer80_mean       =   2.1904083196854E-07
(PID.TID 0000.0001) %MON trcstat_ptracer80_sd         =   1.1483912396179E-06
(PID.TID 0000.0001) %MON trcstat_ptracer80_del2       =   0.0000000000000E+00
(PID.TID 0000.0001) %MON trcstat_ptracer81_max        =   7.3461555984977E-06
(PID.TID 0000.0001) %MON trcstat_ptracer81_min        =   0.0000000000000E+00
(PID.TID 0000.0001) %MON trcstat_ptracer81_mean       =   2.1904083196854E-07
(PID.TID 0000.0001) %MON trcstat_ptracer81_sd         =   1.1483912396179E-06
(PID.TID 0000.0001) %MON trcstat_ptracer81_del2       =   0.0000000000000E+00
(PID.TID 0000.0001) %MON trcstat_ptracer82_max        =   7.3461555984977E-06
(PID.TID 0000.0001) %MON trcstat_ptracer82_min        =   0.0000000000000E+00
(PID.TID 0000.0001) %MON trcstat_ptracer82_mean       =   2.1904083196854E-07
(PID.TID 0000.0001) %MON trcstat_ptracer82_sd         =   1.1483912396179E-06
(PID.TID 0000.0001) %MON trcstat_ptracer82_del2       =   0.0000000000000E+00
(PID.TID 0000.0001) %MON trcstat_ptracer83_max        =   7.3461555984977E-06
(PID.TID 0000.0001) %MON trcstat_ptracer83_min        =   0.0000000000000E+00
(PID.TID 0000.0001) %MON trcstat_ptracer83_mean       =   2.1904083196854E-07
(PID.TID 0000.0001) %MON trcstat_ptracer83_sd         =   1.1483912396179E-06
(PID.TID 0000.0001) %MON trcstat_ptracer83_del2       =   0.0000000000000E+00
(PID.TID 0000.0001) %MON trcstat_ptracer84_max        =   7.3461555984977E-06
(PID.TID 0000.0001) %MON trcstat_ptracer84_min        =   0.0000000000000E+00
(PID.TID 0000.0001) %MON trcstat_ptracer84_mean       =   2.1904083196854E-07
(PID.TID 0000.0001) %MON trcstat_ptracer84_sd         =   1.1483912396179E-06
(PID.TID 0000.0001) %MON trcstat_ptracer84_del2       =   0.0000000000000E+00
(PID.TID 0000.0001) %MON trcstat_ptracer85_max        =   7.3461555984977E-06
(PID.TID 0000.0001) %MON trcstat_ptracer85_min        =   0.0000000000000E+00
(PID.TID 0000.0001) %MON trcstat_ptracer85_mean       =   2.1904083196854E-07
(PID.TID 0000.0001) %MON trcstat_ptracer85_sd         =   1.1483912396179E-06
(PID.TID 0000.0001) %MON trcstat_ptracer85_del2       =   0.0000000000000E+00
(PID.TID 0000.0001) %MON trcstat_ptracer86_max        =   7.3461555984977E-06
(PID.TID 0000.0001) %MON trcstat_ptracer86_min        =   0.0000000000000E+00
(PID.TID 0000.0001) %MON trcstat_ptracer86_mean       =   2.1904083196854E-07
(PID.TID 0000.0001) %MON trcstat_ptracer86_sd         =   1.1483912396179E-06
(PID.TID 0000.0001) %MON trcstat_ptracer86_del2       =   0.0000000000000E+00
(PID.TID 0000.0001) %MON trcstat_ptracer87_max        =   7.3461555984977E-06
(PID.TID 0000.0001) %MON trcstat_ptracer87_min        =   0.0000000000000E+00
(PID.TID 0000.0001) %MON trcstat_ptracer87_mean       =   2.1904083196854E-07
(PID.TID 0000.0001) %MON trcstat_ptracer87_sd         =   1.1483912396179E-06
(PID.TID 0000.0001) %MON trcstat_ptracer87_del2       =   0.0000000000000E+00
(PID.TID 0000.0001) %MON trcstat_ptracer88_max        =   7.3461555984977E-06
(PID.TID 0000.0001) %MON trcstat_ptracer88_min        =   0.0000000000000E+00
(PID.TID 0000.0001) %MON trcstat_ptracer88_mean       =   2.1904083196854E-07
(PID.TID 0000.0001) %MON trcstat_ptracer88_sd         =   1.1483912396179E-06
(PID.TID 0000.0001) %MON trcstat_ptracer88_del2       =   0.0000000000000E+00
(PID.TID 0000.0001) %MON trcstat_ptracer89_max        =   7.3461555984977E-06
(PID.TID 0000.0001) %MON trcstat_ptracer89_min        =   0.0000000000000E+00
(PID.TID 0000.0001) %MON trcstat_ptracer89_mean       =   2.1904083196854E-07
(PID.TID 0000.0001) %MON trcstat_ptracer89_sd         =   1.1483912396179E-06
(PID.TID 0000.0001) %MON trcstat_ptracer89_del2       =   0.0000000000000E+00
(PID.TID 0000.0001) %MON trcstat_ptracer90_max        =   7.3461555984977E-06
(PID.TID 0000.0001) %MON trcstat_ptracer90_min        =   0.0000000000000E+00
(PID.TID 0000.0001) %MON trcstat_ptracer90_mean       =   2.1904083196854E-07
(PID.TID 0000.0001) %MON trcstat_ptracer90_sd         =   1.1483912396179E-06
(PID.TID 0000.0001) %MON trcstat_ptracer90_del2       =   0.0000000000000E+00
(PID.TID 0000.0001) %MON trcstat_ptracer91_max        =   7.3461555984977E-06
(PID.TID 0000.0001) %MON trcstat_ptracer91_min        =   0.0000000000000E+00
(PID.TID 0000.0001) %MON trcstat_ptracer91_mean       =   2.1904083196854E-07
(PID.TID 0000.0001) %MON trcstat_ptracer91_sd         =   1.1483912396179E-06
(PID.TID 0000.0001) %MON trcstat_ptracer91_del2       =   0.0000000000000E+00
(PID.TID 0000.0001) %MON trcstat_ptracer92_max        =   7.3461555984977E-06
(PID.TID 0000.0001) %MON trcstat_ptracer92_min        =   0.0000000000000E+00
(PID.TID 0000.0001) %MON trcstat_ptracer92_mean       =   2.1904083196854E-07
(PID.TID 0000.0001) %MON trcstat_ptracer92_sd         =   1.1483912396179E-06
(PID.TID 0000.0001) %MON trcstat_ptracer92_del2       =   0.0000000000000E+00
(PID.TID 0000.0001) %MON trcstat_ptracer93_max        =   7.3461555984977E-06
(PID.TID 0000.0001) %MON trcstat_ptracer93_min        =   0.0000000000000E+00
(PID.TID 0000.0001) %MON trcstat_ptracer93_mean       =   2.1904083196854E-07
(PID.TID 0000.0001) %MON trcstat_ptracer93_sd         =   1.1483912396179E-06
(PID.TID 0000.0001) %MON trcstat_ptracer93_del2       =   0.0000000000000E+00
(PID.TID 0000.0001) %MON trcstat_ptracer94_max        =   7.3461555984977E-06
(PID.TID 0000.0001) %MON trcstat_ptracer94_min        =   0.0000000000000E+00
(PID.TID 0000.0001) %MON trcstat_ptracer94_mean       =   2.1904083196854E-07
(PID.TID 0000.0001) %MON trcstat_ptracer94_sd         =   1.1483912396179E-06
(PID.TID 0000.0001) %MON trcstat_ptracer94_del2       =   0.0000000000000E+00
(PID.TID 0000.0001) %MON trcstat_ptracer95_max        =   7.3461555984977E-06
(PID.TID 0000.0001) %MON trcstat_ptracer95_min        =   0.0000000000000E+00
(PID.TID 0000.0001) %MON trcstat_ptracer95_mean       =   2.1904083196854E-07
(PID.TID 0000.0001) %MON trcstat_ptracer95_sd         =   1.1483912396179E-06
(PID.TID 0000.0001) %MON trcstat_ptracer95_del2       =   0.0000000000000E+00
(PID.TID 0000.0001) %MON trcstat_ptracer96_max        =   7.3461555984977E-06
(PID.TID 0000.0001) %MON trcstat_ptracer96_min        =   0.0000000000000E+00
(PID.TID 0000.0001) %MON trcstat_ptracer96_mean       =   2.1904083196854E-07
(PID.TID 0000.0001) %MON trcstat_ptracer96_sd         =   1.1483912396179E-06
(PID.TID 0000.0001) %MON trcstat_ptracer96_del2       =   0.0000000000000E+00
(PID.TID 0000.0001) %MON trcstat_ptracer97_max        =   7.3461555984977E-06
(PID.TID 0000.0001) %MON trcstat_ptracer97_min        =   0.0000000000000E+00
(PID.TID 0000.0001) %MON trcstat_ptracer97_mean       =   2.1904083196854E-07
(PID.TID 0000.0001) %MON trcstat_ptracer97_sd         =   1.1483912396179E-06
(PID.TID 0000.0001) %MON trcstat_ptracer97_del2       =   0.0000000000000E+00
(PID.TID 0000.0001) %MON trcstat_ptracer98_max        =   7.3461555984977E-06
(PID.TID 0000.0001) %MON trcstat_ptracer98_min        =   0.0000000000000E+00
(PID.TID 0000.0001) %MON trcstat_ptracer98_mean       =   2.1904083196854E-07
(PID.TID 0000.0001) %MON trcstat_ptracer98_sd         =   1.1483912396179E-06
(PID.TID 0000.0001) %MON trcstat_ptracer98_del2       =   0.0000000000000E+00
(PID.TID 0000.0001) %MON trcstat_ptracer99_max        =   7.3461555984977E-06
(PID.TID 0000.0001) %MON trcstat_ptracer99_min        =   0.0000000000000E+00
(PID.TID 0000.0001) %MON trcstat_ptracer99_mean       =   2.1904083196854E-07
(PID.TID 0000.0001) %MON trcstat_ptracer99_sd         =   1.1483912396179E-06
(PID.TID 0000.0001) %MON trcstat_ptracer99_del2       =   0.0000000000000E+00
(PID.TID 0000.0001) // =======================================================
(PID.TID 0000.0001) // End MONITOR ptracers field statistics
(PID.TID 0000.0001) // =======================================================
S/R EXTERNAL_FIELDS_LOAD: Reading new data:   12    1         0  0.000000000000E+00
(PID.TID 0000.0001)  MDS_READ_FIELD: opening global file: input/loc1_temp_monsurf.bin
(PID.TID 0000.0001)  MDS_READ_FIELD: opening global file: input/loc1_temp_monsurf.bin
time,SST,SSS,fu,fv,Q,E-P,i0,i1,a,b =   0.0000E+00  2.5676E+01  0.0000E+00  0.0000E+00  0.0000E+00  0.0000E+00  0.0000E+00    12     1  5.0000E-01  5.0000E-01
time,fu0,fu1,fu =   0.0000E+00  0.0000E+00  0.0000E+00  0.0000E+00  5.000000000000000E-01  5.000000000000000E-01
(PID.TID 0000.0001) S/R DARWIN_FIELDS_LOAD: Reading forcing data  0.000000000000E+00          0
(PID.TID 0000.0001)  MDS_READ_FIELD: opening global file: input/loc1_FeFlux_monsurf.bin
(PID.TID 0000.0001)  MDS_READ_FIELD: opening global file: input/loc1_FeFlux_monsurf.bin
(PID.TID 0000.0001)  MDS_READ_FIELD: opening global file: input/loc1_PAR_monsurf.bin
(PID.TID 0000.0001)  MDS_READ_FIELD: opening global file: input/loc1_PAR_monsurf.bin
(PID.TID 0000.0001) // =======================================================
(PID.TID 0000.0001) // Begin MONITOR dynamic field statistics
(PID.TID 0000.0001) // =======================================================
(PID.TID 0000.0001) %MON time_tsnumber                =                     1
(PID.TID 0000.0001) %MON time_secondsf                =   3.6000000000000E+03
(PID.TID 0000.0001) %MON dynstat_eta_max              =   0.0000000000000E+00
(PID.TID 0000.0001) %MON dynstat_eta_min              =   0.0000000000000E+00
(PID.TID 0000.0001) %MON dynstat_eta_mean             =   0.0000000000000E+00
(PID.TID 0000.0001) %MON dynstat_eta_sd               =   0.0000000000000E+00
(PID.TID 0000.0001) %MON dynstat_eta_del2             =   0.0000000000000E+00
(PID.TID 0000.0001) %MON dynstat_uvel_max             =   0.0000000000000E+00
(PID.TID 0000.0001) %MON dynstat_uvel_min             =   0.0000000000000E+00
(PID.TID 0000.0001) %MON dynstat_uvel_mean            =   0.0000000000000E+00
(PID.TID 0000.0001) %MON dynstat_uvel_sd              =   0.0000000000000E+00
(PID.TID 0000.0001) %MON dynstat_uvel_del2            =   0.0000000000000E+00
(PID.TID 0000.0001) %MON dynstat_vvel_max             =   0.0000000000000E+00
(PID.TID 0000.0001) %MON dynstat_vvel_min             =   0.0000000000000E+00
(PID.TID 0000.0001) %MON dynstat_vvel_mean            =   0.0000000000000E+00
(PID.TID 0000.0001) %MON dynstat_vvel_sd              =   0.0000000000000E+00
(PID.TID 0000.0001) %MON dynstat_vvel_del2            =   0.0000000000000E+00
(PID.TID 0000.0001) %MON dynstat_wvel_max             =   0.0000000000000E+00
(PID.TID 0000.0001) %MON dynstat_wvel_min             =   0.0000000000000E+00
(PID.TID 0000.0001) %MON dynstat_wvel_mean            =   0.0000000000000E+00
(PID.TID 0000.0001) %MON dynstat_wvel_sd              =   0.0000000000000E+00
(PID.TID 0000.0001) %MON dynstat_wvel_del2            =   0.0000000000000E+00
(PID.TID 0000.0001) %MON dynstat_theta_max            =   2.6335817374515E+01
(PID.TID 0000.0001) %MON dynstat_theta_min            =   2.6737003185748E+00
(PID.TID 0000.0001) %MON dynstat_theta_mean           =   5.4735670012030E+00
(PID.TID 0000.0001) %MON dynstat_theta_sd             =   5.1970860626953E+00
(PID.TID 0000.0001) %MON dynstat_theta_del2           =   0.0000000000000E+00
(PID.TID 0000.0001) %MON dynstat_salt_max             =   3.5000000000000E+01
(PID.TID 0000.0001) %MON dynstat_salt_min             =   3.5000000000000E+01
(PID.TID 0000.0001) %MON dynstat_salt_mean            =   3.5000000000000E+01
(PID.TID 0000.0001) %MON dynstat_salt_sd              =   7.1054273576010E-15
(PID.TID 0000.0001) %MON dynstat_salt_del2            =   0.0000000000000E+00
(PID.TID 0000.0001) %MON dynstat_sst_max              =   2.6335817374515E+01
(PID.TID 0000.0001) %MON dynstat_sst_min              =   2.6335817374515E+01
(PID.TID 0000.0001) %MON dynstat_sst_mean             =   2.6335817374515E+01
(PID.TID 0000.0001) %MON dynstat_sst_sd               =   0.0000000000000E+00
(PID.TID 0000.0001) %MON dynstat_sst_del2             =   0.0000000000000E+00
(PID.TID 0000.0001) %MON dynstat_sss_max              =   3.5000000000000E+01
(PID.TID 0000.0001) %MON dynstat_sss_min              =   3.5000000000000E+01
(PID.TID 0000.0001) %MON dynstat_sss_mean             =   3.5000000000000E+01
(PID.TID 0000.0001) %MON dynstat_sss_sd               =   0.0000000000000E+00
(PID.TID 0000.0001) %MON dynstat_sss_del2             =   0.0000000000000E+00
(PID.TID 0000.0001) %MON extforcing_qnet_max          =   0.0000000000000E+00
(PID.TID 0000.0001) %MON extforcing_qnet_min          =   0.0000000000000E+00
(PID.TID 0000.0001) %MON extforcing_qnet_mean         =   0.0000000000000E+00
(PID.TID 0000.0001) %MON extforcing_qnet_sd           =   0.0000000000000E+00
(PID.TID 0000.0001) %MON extforcing_qnet_del2         =   0.0000000000000E+00
(PID.TID 0000.0001) %MON extforcing_qsw_max           =   0.0000000000000E+00
(PID.TID 0000.0001) %MON extforcing_qsw_min           =   0.0000000000000E+00
(PID.TID 0000.0001) %MON extforcing_qsw_mean          =   0.0000000000000E+00
(PID.TID 0000.0001) %MON extforcing_qsw_sd            =   0.0000000000000E+00
(PID.TID 0000.0001) %MON extforcing_qsw_del2          =   0.0000000000000E+00
(PID.TID 0000.0001) %MON extforcing_empmr_max         =   0.0000000000000E+00
(PID.TID 0000.0001) %MON extforcing_empmr_min         =   0.0000000000000E+00
(PID.TID 0000.0001) %MON extforcing_empmr_mean        =   0.0000000000000E+00
(PID.TID 0000.0001) %MON extforcing_empmr_sd          =   0.0000000000000E+00
(PID.TID 0000.0001) %MON extforcing_empmr_del2        =   0.0000000000000E+00
(PID.TID 0000.0001) %MON extforcing_fu_max            =   0.0000000000000E+00
(PID.TID 0000.0001) %MON extforcing_fu_min            =   0.0000000000000E+00
(PID.TID 0000.0001) %MON extforcing_fu_mean           =   0.0000000000000E+00
(PID.TID 0000.0001) %MON extforcing_fu_sd             =   0.0000000000000E+00
(PID.TID 0000.0001) %MON extforcing_fu_del2           =   0.0000000000000E+00
(PID.TID 0000.0001) %MON extforcing_fv_max            =   0.0000000000000E+00
(PID.TID 0000.0001) %MON extforcing_fv_min            =   0.0000000000000E+00
(PID.TID 0000.0001) %MON extforcing_fv_mean           =   0.0000000000000E+00
(PID.TID 0000.0001) %MON extforcing_fv_sd             =   0.0000000000000E+00
(PID.TID 0000.0001) %MON extforcing_fv_del2           =   0.0000000000000E+00
(PID.TID 0000.0001) %MON advcfl_uvel_max              =   0.0000000000000E+00
(PID.TID 0000.0001) %MON advcfl_vvel_max              =   0.0000000000000E+00
(PID.TID 0000.0001) %MON advcfl_wvel_max              =   0.0000000000000E+00
(PID.TID 0000.0001) %MON advcfl_W_hf_max              =   0.0000000000000E+00
(PID.TID 0000.0001) %MON pe_b_mean                    =   0.0000000000000E+00
(PID.TID 0000.0001) %MON ke_max                       =   0.0000000000000E+00
(PID.TID 0000.0001) %MON ke_mean                      =   0.0000000000000E+00
(PID.TID 0000.0001) %MON ke_vol                       =   4.1199767883485E+13
(PID.TID 0000.0001) %MON vort_r_min                   =   0.0000000000000E+00
(PID.TID 0000.0001) %MON vort_r_max                   =   0.0000000000000E+00
(PID.TID 0000.0001) %MON vort_a_mean                  =  -4.5067801836625E-05
(PID.TID 0000.0001) %MON vort_a_sd                    =  -4.1359030627651E-25
(PID.TID 0000.0001) %MON vort_p_mean                  =  -4.5067801836625E-05
(PID.TID 0000.0001) %MON vort_p_sd                    =   0.0000000000000E+00
(PID.TID 0000.0001) %MON surfExpan_theta_mean         =   0.0000000000000E+00
(PID.TID 0000.0001) %MON surfExpan_salt_mean          =   0.0000000000000E+00
(PID.TID 0000.0001) // =======================================================
(PID.TID 0000.0001) // End MONITOR dynamic field statistics
(PID.TID 0000.0001) // =======================================================
(PID.TID 0000.0001) // =======================================================
(PID.TID 0000.0001) // Begin MONITOR ptracer field statistics
(PID.TID 0000.0001) // =======================================================
(PID.TID 0000.0001) %MON trcstat_ptracer01_max        =   2.2436999316292E+00
(PID.TID 0000.0001) %MON trcstat_ptracer01_min        =   2.1025171840540E-01
(PID.TID 0000.0001) %MON trcstat_ptracer01_mean       =   1.5821338587320E+00
(PID.TID 0000.0001) %MON trcstat_ptracer01_sd         =   4.6735033877149E-01
(PID.TID 0000.0001) %MON trcstat_ptracer01_del2       =   0.0000000000000E+00
(PID.TID 0000.0001) %MON trcstat_ptracer02_max        =   3.3903497946864E+01
(PID.TID 0000.0001) %MON trcstat_ptracer02_min        =   4.6346291291199E-02
(PID.TID 0000.0001) %MON trcstat_ptracer02_mean       =   2.3502390415014E+01
(PID.TID 0000.0001) %MON trcstat_ptracer02_sd         =   7.8162008444693E+00
(PID.TID 0000.0001) %MON trcstat_ptracer02_del2       =   0.0000000000000E+00
(PID.TID 0000.0001) %MON trcstat_ptracer03_max        =   1.3001301930486E-03
(PID.TID 0000.0001) %MON trcstat_ptracer03_min        =   1.2999853935924E-03
(PID.TID 0000.0001) %MON trcstat_ptracer03_mean       =   1.2999859179333E-03
(PID.TID 0000.0001) %MON trcstat_ptracer03_sd         =   7.7319605557738E-09
(PID.TID 0000.0001) %MON trcstat_ptracer03_del2       =   0.0000000000000E+00
(PID.TID 0000.0001) %MON trcstat_ptracer04_max        =   3.9387401347897E+01
(PID.TID 0000.0001) %MON trcstat_ptracer04_min        =   1.2247985685354E+00
(PID.TID 0000.0001) %MON trcstat_ptracer04_mean       =   2.9621889357063E+01
(PID.TID 0000.0001) %MON trcstat_ptracer04_sd         =   1.1270586902810E+01
(PID.TID 0000.0001) %MON trcstat_ptracer04_del2       =   0.0000000000000E+00
(PID.TID 0000.0001) %MON trcstat_ptracer05_max        =   5.1130172800570E-03
(PID.TID 0000.0001) %MON trcstat_ptracer05_min        =   1.8021877931925E-35
(PID.TID 0000.0001) %MON trcstat_ptracer05_mean       =   2.1469811526185E-04
(PID.TID 0000.0001) %MON trcstat_ptracer05_sd         =   9.2429416580026E-04
(PID.TID 0000.0001) %MON trcstat_ptracer05_del2       =   0.0000000000000E+00
(PID.TID 0000.0001) %MON trcstat_ptracer06_max        =   8.1808276480913E-02
(PID.TID 0000.0001) %MON trcstat_ptracer06_min        =   2.8835004691081E-34
(PID.TID 0000.0001) %MON trcstat_ptracer06_mean       =   3.4351698441896E-03
(PID.TID 0000.0001) %MON trcstat_ptracer06_sd         =   1.4788706652804E-02
(PID.TID 0000.0001) %MON trcstat_ptracer06_del2       =   0.0000000000000E+00
(PID.TID 0000.0001) %MON trcstat_ptracer07_max        =   5.1130169203454E-06
(PID.TID 0000.0001) %MON trcstat_ptracer07_min        =   1.8021850847697E-38
(PID.TID 0000.0001) %MON trcstat_ptracer07_mean       =   2.1469811556822E-07
(PID.TID 0000.0001) %MON trcstat_ptracer07_sd         =   9.2429416545847E-07
(PID.TID 0000.0001) %MON trcstat_ptracer07_del2       =   0.0000000000000E+00
(PID.TID 0000.0001) %MON trcstat_ptracer08_max        =   1.0346787922772E-09
(PID.TID 0000.0001) %MON trcstat_ptracer08_min        =   2.3081610895631E-37
(PID.TID 0000.0001) %MON trcstat_ptracer08_mean       =   1.3683105831657E-10
(PID.TID 0000.0001) %MON trcstat_ptracer08_sd         =   2.5027329804574E-10
(PID.TID 0000.0001) %MON trcstat_ptracer08_del2       =   0.0000000000000E+00
(PID.TID 0000.0001) %MON trcstat_ptracer09_max        =   1.6554860676436E-08
(PID.TID 0000.0001) %MON trcstat_ptracer09_min        =   3.6930577433009E-36
(PID.TID 0000.0001) %MON trcstat_ptracer09_mean       =   2.1892969330651E-09
(PID.TID 0000.0001) %MON trcstat_ptracer09_sd         =   4.0043727687319E-09
(PID.TID 0000.0001) %MON trcstat_ptracer09_del2       =   0.0000000000000E+00
(PID.TID 0000.0001) %MON trcstat_ptracer10_max        =   1.0346787567670E-12
(PID.TID 0000.0001) %MON trcstat_ptracer10_min        =   2.3081609238528E-40
(PID.TID 0000.0001) %MON trcstat_ptracer10_mean       =   1.3683104928549E-13
(PID.TID 0000.0001) %MON trcstat_ptracer10_sd         =   2.5027328377130E-13
(PID.TID 0000.0001) %MON trcstat_ptracer10_del2       =   0.0000000000000E+00
(PID.TID 0000.0001) %MON trcstat_ptracer11_max        =   4.2484844982665E-09
(PID.TID 0000.0001) %MON trcstat_ptracer11_min        =   2.3720837755898E-43
(PID.TID 0000.0001) %MON trcstat_ptracer11_mean       =   5.1499643117315E-10
(PID.TID 0000.0001) %MON trcstat_ptracer11_sd         =   1.0364344566081E-09
(PID.TID 0000.0001) %MON trcstat_ptracer11_del2       =   0.0000000000000E+00
(PID.TID 0000.0001) %MON trcstat_ptracer12_max        =   1.0346544129005E-09
(PID.TID 0000.0001) %MON trcstat_ptracer12_min        =   2.3081610895631E-37
(PID.TID 0000.0001) %MON trcstat_ptracer12_mean       =   1.3683036539451E-10
(PID.TID 0000.0001) %MON trcstat_ptracer12_sd         =   2.5027097474942E-10
(PID.TID 0000.0001) %MON trcstat_ptracer12_del2       =   0.0000000000000E+00
(PID.TID 0000.0001) %MON trcstat_ptracer13_max        =   1.6554470606408E-08
(PID.TID 0000.0001) %MON trcstat_ptracer13_min        =   3.6930577433009E-36
(PID.TID 0000.0001) %MON trcstat_ptracer13_mean       =   2.1892858463121E-09
(PID.TID 0000.0001) %MON trcstat_ptracer13_sd         =   4.0043355959908E-09
(PID.TID 0000.0001) %MON trcstat_ptracer13_del2       =   0.0000000000000E+00
(PID.TID 0000.0001) %MON trcstat_ptracer14_max        =   1.0346543773902E-12
(PID.TID 0000.0001) %MON trcstat_ptracer14_min        =   2.3081609238528E-40
(PID.TID 0000.0001) %MON trcstat_ptracer14_mean       =   1.3683035636342E-13
(PID.TID 0000.0001) %MON trcstat_ptracer14_sd         =   2.5027096047484E-13
(PID.TID 0000.0001) %MON trcstat_ptracer14_del2       =   0.0000000000000E+00
(PID.TID 0000.0001) %MON trcstat_ptracer15_max        =   4.2484844983237E-09
(PID.TID 0000.0001) %MON trcstat_ptracer15_min        =   2.3720837755898E-43
(PID.TID 0000.0001) %MON trcstat_ptracer15_mean       =   5.1499915677001E-10
(PID.TID 0000.0001) %MON trcstat_ptracer15_sd         =   1.0364331024154E-09
(PID.TID 0000.0001) %MON trcstat_ptracer15_del2       =   0.0000000000000E+00
(PID.TID 0000.0001) %MON trcstat_ptracer16_max        =   2.7223320143064E-04
(PID.TID 0000.0001) %MON trcstat_ptracer16_min        =   1.1738639280032E-06
(PID.TID 0000.0001) %MON trcstat_ptracer16_mean       =   7.8884949879818E-05
(PID.TID 0000.0001) %MON trcstat_ptracer16_sd         =   9.6557409761349E-05
(PID.TID 0000.0001) %MON trcstat_ptracer16_del2       =   0.0000000000000E+00
(PID.TID 0000.0001) %MON trcstat_ptracer17_max        =   4.3557312228902E-03
(PID.TID 0000.0001) %MON trcstat_ptracer17_min        =   1.8781822848050E-05
(PID.TID 0000.0001) %MON trcstat_ptracer17_mean       =   1.2621591980771E-03
(PID.TID 0000.0001) %MON trcstat_ptracer17_sd         =   1.5449185561816E-03
(PID.TID 0000.0001) %MON trcstat_ptracer17_del2       =   0.0000000000000E+00
(PID.TID 0000.0001) %MON trcstat_ptracer18_max        =   2.7223321719346E-07
(PID.TID 0000.0001) %MON trcstat_ptracer18_min        =   1.1738637993409E-09
(PID.TID 0000.0001) %MON trcstat_ptracer18_mean       =   7.8884950405999E-08
(PID.TID 0000.0001) %MON trcstat_ptracer18_sd         =   9.6557411818677E-08
(PID.TID 0000.0001) %MON trcstat_ptracer18_del2       =   0.0000000000000E+00
(PID.TID 0000.0001) %MON trcstat_ptracer19_max        =   1.6249560323349E-02
(PID.TID 0000.0001) %MON trcstat_ptracer19_min        =   1.1386925448278E-03
(PID.TID 0000.0001) %MON trcstat_ptracer19_mean       =   5.4888801508354E-03
(PID.TID 0000.0001) %MON trcstat_ptracer19_sd         =   5.1715411546542E-03
(PID.TID 0000.0001) %MON trcstat_ptracer19_del2       =   0.0000000000000E+00
(PID.TID 0000.0001) %MON trcstat_ptracer20_max        =   2.5602575778065E-02
(PID.TID 0000.0001) %MON trcstat_ptracer20_min        =   1.8763301829746E-07
(PID.TID 0000.0001) %MON trcstat_ptracer20_mean       =   6.0478181150113E-04
(PID.TID 0000.0001) %MON trcstat_ptracer20_sd         =   3.2464884094691E-03
(PID.TID 0000.0001) %MON trcstat_ptracer20_del2       =   0.0000000000000E+00
(PID.TID 0000.0001) %MON trcstat_ptracer21_max        =   1.8255276225298E-02
(PID.TID 0000.0001) %MON trcstat_ptracer21_min        =   3.8791489719394E-06
(PID.TID 0000.0001) %MON trcstat_ptracer21_mean       =   6.0468926703287E-04
(PID.TID 0000.0001) %MON trcstat_ptracer21_sd         =   1.9426762343647E-03
(PID.TID 0000.0001) %MON trcstat_ptracer21_del2       =   0.0000000000000E+00
(PID.TID 0000.0001) %MON trcstat_ptracer22_max        =   7.3153367269729E-06
(PID.TID 0000.0001) %MON trcstat_ptracer22_min        =   9.5459218922750E-37
(PID.TID 0000.0001) %MON trcstat_ptracer22_mean       =   2.1819669835012E-07
(PID.TID 0000.0001) %MON trcstat_ptracer22_sd         =   1.1435254540458E-06
(PID.TID 0000.0001) %MON trcstat_ptracer22_del2       =   0.0000000000000E+00
(PID.TID 0000.0001) %MON trcstat_ptracer23_max        =   7.3538817355430E-06
(PID.TID 0000.0001) %MON trcstat_ptracer23_min        =   3.2877078143340E-39
(PID.TID 0000.0001) %MON trcstat_ptracer23_mean       =   2.1919237979807E-07
(PID.TID 0000.0001) %MON trcstat_ptracer23_sd         =   1.1496246479458E-06
(PID.TID 0000.0001) %MON trcstat_ptracer23_del2       =   0.0000000000000E+00
(PID.TID 0000.0001) %MON trcstat_ptracer24_max        =   7.3153367269732E-06
(PID.TID 0000.0001) %MON trcstat_ptracer24_min        =   9.5459218922750E-37
(PID.TID 0000.0001) %MON trcstat_ptracer24_mean       =   2.1812816179844E-07
(PID.TID 0000.0001) %MON trcstat_ptracer24_sd         =   1.1434544520017E-06
(PID.TID 0000.0001) %MON trcstat_ptracer24_del2       =   0.0000000000000E+00
(PID.TID 0000.0001) %MON trcstat_ptracer25_max        =   7.3787577915072E-06
(PID.TID 0000.0001) %MON trcstat_ptracer25_min        =   9.5459218922750E-37
(PID.TID 0000.0001) %MON trcstat_ptracer25_mean       =   2.2000291960592E-07
(PID.TID 0000.0001) %MON trcstat_ptracer25_sd         =   1.1531856971797E-06
(PID.TID 0000.0001) %MON trcstat_ptracer25_del2       =   0.0000000000000E+00
(PID.TID 0000.0001) %MON trcstat_ptracer26_max        =   7.3755193936344E-06
(PID.TID 0000.0001) %MON trcstat_ptracer26_min        =   3.2877078143340E-39
(PID.TID 0000.0001) %MON trcstat_ptracer26_mean       =   2.1976401729888E-07
(PID.TID 0000.0001) %MON trcstat_ptracer26_sd         =   1.1526421236664E-06
(PID.TID 0000.0001) %MON trcstat_ptracer26_del2       =   0.0000000000000E+00
(PID.TID 0000.0001) %MON trcstat_ptracer27_max        =   7.3154912431501E-06
(PID.TID 0000.0001) %MON trcstat_ptracer27_min        =   3.2877078143340E-39
(PID.TID 0000.0001) %MON trcstat_ptracer27_mean       =   2.1812816568190E-07
(PID.TID 0000.0001) %MON trcstat_ptracer27_sd         =   1.1436004532832E-06
(PID.TID 0000.0001) %MON trcstat_ptracer27_del2       =   0.0000000000000E+00
(PID.TID 0000.0001) %MON trcstat_ptracer28_max        =   7.3479171510660E-06
(PID.TID 0000.0001) %MON trcstat_ptracer28_min        =   3.2877078143340E-39
(PID.TID 0000.0001) %MON trcstat_ptracer28_mean       =   2.1903056232308E-07
(PID.TID 0000.0001) %MON trcstat_ptracer28_sd         =   1.1486481380291E-06
(PID.TID 0000.0001) %MON trcstat_ptracer28_del2       =   0.0000000000000E+00
(PID.TID 0000.0001) %MON trcstat_ptracer29_max        =   7.3154912431494E-06
(PID.TID 0000.0001) %MON trcstat_ptracer29_min        =   3.2877078143340E-39
(PID.TID 0000.0001) %MON trcstat_ptracer29_mean       =   2.1816634300365E-07
(PID.TID 0000.0001) %MON trcstat_ptracer29_sd         =   1.1437446773609E-06
(PID.TID 0000.0001) %MON trcstat_ptracer29_del2       =   0.0000000000000E+00
(PID.TID 0000.0001) %MON trcstat_ptracer30_max        =   7.3274507837663E-06
(PID.TID 0000.0001) %MON trcstat_ptracer30_min        =   3.2877078143340E-39
(PID.TID 0000.0001) %MON trcstat_ptracer30_mean       =   2.1870742517789E-07
(PID.TID 0000.0001) %MON trcstat_ptracer30_sd         =   1.1461770661285E-06
(PID.TID 0000.0001) %MON trcstat_ptracer30_del2       =   0.0000000000000E+00
(PID.TID 0000.0001) %MON trcstat_ptracer31_max        =   7.3867481294752E-06
(PID.TID 0000.0001) %MON trcstat_ptracer31_min        =   3.2877078143340E-39
(PID.TID 0000.0001) %MON trcstat_ptracer31_mean       =   2.2010253398739E-07
(PID.TID 0000.0001) %MON trcstat_ptracer31_sd         =   1.1544465150211E-06
(PID.TID 0000.0001) %MON trcstat_ptracer31_del2       =   0.0000000000000E+00
(PID.TID 0000.0001) %MON trcstat_ptracer32_max        =   7.3154912431510E-06
(PID.TID 0000.0001) %MON trcstat_ptracer32_min        =   3.2877078143340E-39
(PID.TID 0000.0001) %MON trcstat_ptracer32_mean       =   2.1812816178265E-07
(PID.TID 0000.0001) %MON trcstat_ptracer32_sd         =   1.1436004539497E-06
(PID.TID 0000.0001) %MON trcstat_ptracer32_del2       =   0.0000000000000E+00
(PID.TID 0000.0001) %MON trcstat_ptracer33_max        =   7.3154912431494E-06
(PID.TID 0000.0001) %MON trcstat_ptracer33_min        =   3.2877078143340E-39
(PID.TID 0000.0001) %MON trcstat_ptracer33_mean       =   2.1812816178260E-07
(PID.TID 0000.0001) %MON trcstat_ptracer33_sd         =   1.1436004539494E-06
(PID.TID 0000.0001) %MON trcstat_ptracer33_del2       =   0.0000000000000E+00
(PID.TID 0000.0001) %MON trcstat_ptracer34_max        =   7.3508744397091E-06
(PID.TID 0000.0001) %MON trcstat_ptracer34_min        =   3.2877078143340E-39
(PID.TID 0000.0001) %MON trcstat_ptracer34_mean       =   2.1899461239258E-07
(PID.TID 0000.0001) %MON trcstat_ptracer34_sd         =   1.1486717637736E-06
(PID.TID 0000.0001) %MON trcstat_ptracer34_del2       =   0.0000000000000E+00
(PID.TID 0000.0001) %MON trcstat_ptracer35_max        =   7.3153367264046E-06
(PID.TID 0000.0001) %MON trcstat_ptracer35_min        =   9.5459218922750E-37
(PID.TID 0000.0001) %MON trcstat_ptracer35_mean       =   2.1812816178255E-07
(PID.TID 0000.0001) %MON trcstat_ptracer35_sd         =   1.1434544519161E-06
(PID.TID 0000.0001) %MON trcstat_ptracer35_del2       =   0.0000000000000E+00
(PID.TID 0000.0001) %MON trcstat_ptracer36_max        =   7.3924417588932E-06
(PID.TID 0000.0001) %MON trcstat_ptracer36_min        =   3.2877078143340E-39
(PID.TID 0000.0001) %MON trcstat_ptracer36_mean       =   2.2025320511695E-07
(PID.TID 0000.0001) %MON trcstat_ptracer36_sd         =   1.1553217096906E-06
(PID.TID 0000.0001) %MON trcstat_ptracer36_del2       =   0.0000000000000E+00
(PID.TID 0000.0001) %MON trcstat_ptracer37_max        =   7.3154912431496E-06
(PID.TID 0000.0001) %MON trcstat_ptracer37_min        =   3.2877078143340E-39
(PID.TID 0000.0001) %MON trcstat_ptracer37_mean       =   2.1834320306682E-07
(PID.TID 0000.0001) %MON trcstat_ptracer37_sd         =   1.1444549600767E-06
(PID.TID 0000.0001) %MON trcstat_ptracer37_del2       =   0.0000000000000E+00
(PID.TID 0000.0001) %MON trcstat_ptracer38_max        =   7.3650519569709E-06
(PID.TID 0000.0001) %MON trcstat_ptracer38_min        =   3.2877078143340E-39
(PID.TID 0000.0001) %MON trcstat_ptracer38_mean       =   2.1943181674257E-07
(PID.TID 0000.0001) %MON trcstat_ptracer38_sd         =   1.1510353841034E-06
(PID.TID 0000.0001) %MON trcstat_ptracer38_del2       =   0.0000000000000E+00
(PID.TID 0000.0001) %MON trcstat_ptracer39_max        =   7.3585650646535E-06
(PID.TID 0000.0001) %MON trcstat_ptracer39_min        =   9.5459218922750E-37
(PID.TID 0000.0001) %MON trcstat_ptracer39_mean       =   2.1942102955538E-07
(PID.TID 0000.0001) %MON trcstat_ptracer39_sd         =   1.1500997010931E-06
(PID.TID 0000.0001) %MON trcstat_ptracer39_del2       =   0.0000000000000E+00
(PID.TID 0000.0001) %MON trcstat_ptracer40_max        =   7.3153367269728E-06
(PID.TID 0000.0001) %MON trcstat_ptracer40_min        =   9.5459218922750E-37
(PID.TID 0000.0001) %MON trcstat_ptracer40_mean       =   2.1812816179843E-07
(PID.TID 0000.0001) %MON trcstat_ptracer40_sd         =   1.1434544520016E-06
(PID.TID 0000.0001) %MON trcstat_ptracer40_del2       =   0.0000000000000E+00
(PID.TID 0000.0001) %MON trcstat_ptracer41_max        =   7.3154912431496E-06
(PID.TID 0000.0001) %MON trcstat_ptracer41_min        =   3.2877078143340E-39
(PID.TID 0000.0001) %MON trcstat_ptracer41_mean       =   2.1812852682948E-07
(PID.TID 0000.0001) %MON trcstat_ptracer41_sd         =   1.1436004143506E-06
(PID.TID 0000.0001) %MON trcstat_ptracer41_del2       =   0.0000000000000E+00
(PID.TID 0000.0001) %MON trcstat_ptracer42_max        =   7.3154912431499E-06
(PID.TID 0000.0001) %MON trcstat_ptracer42_min        =   3.2877078143340E-39
(PID.TID 0000.0001) %MON trcstat_ptracer42_mean       =   2.1812816178262E-07
(PID.TID 0000.0001) %MON trcstat_ptracer42_sd         =   1.1436004539495E-06
(PID.TID 0000.0001) %MON trcstat_ptracer42_del2       =   0.0000000000000E+00
(PID.TID 0000.0001) %MON trcstat_ptracer43_max        =   7.3154912431499E-06
(PID.TID 0000.0001) %MON trcstat_ptracer43_min        =   3.2877078143340E-39
(PID.TID 0000.0001) %MON trcstat_ptracer43_mean       =   2.1812816720121E-07
(PID.TID 0000.0001) %MON trcstat_ptracer43_sd         =   1.1436004530466E-06
(PID.TID 0000.0001) %MON trcstat_ptracer43_del2       =   0.0000000000000E+00
(PID.TID 0000.0001) %MON trcstat_ptracer44_max        =   7.3553154867810E-06
(PID.TID 0000.0001) %MON trcstat_ptracer44_min        =   3.2877078143340E-39
(PID.TID 0000.0001) %MON trcstat_ptracer44_mean       =   2.1919684121683E-07
(PID.TID 0000.0001) %MON trcstat_ptracer44_sd         =   1.1497004488799E-06
(PID.TID 0000.0001) %MON trcstat_ptracer44_del2       =   0.0000000000000E+00
(PID.TID 0000.0001) %MON trcstat_ptracer45_max        =   7.3154912431500E-06
(PID.TID 0000.0001) %MON trcstat_ptracer45_min        =   3.2877078143340E-39
(PID.TID 0000.0001) %MON trcstat_ptracer45_mean       =   2.1812817713519E-07
(PID.TID 0000.0001) %MON trcstat_ptracer45_sd         =   1.1436004514733E-06
(PID.TID 0000.0001) %MON trcstat_ptracer45_del2       =   0.0000000000000E+00
(PID.TID 0000.0001) %MON trcstat_ptracer46_max        =   7.3962741681096E-06
(PID.TID 0000.0001) %MON trcstat_ptracer46_min        =   9.5459218922750E-37
(PID.TID 0000.0001) %MON trcstat_ptracer46_mean       =   2.2039818186001E-07
(PID.TID 0000.0001) %MON trcstat_ptracer46_sd         =   1.1557842243281E-06
(PID.TID 0000.0001) %MON trcstat_ptracer46_del2       =   0.0000000000000E+00
(PID.TID 0000.0001) %MON trcstat_ptracer47_max        =   7.3563408054282E-06
(PID.TID 0000.0001) %MON trcstat_ptracer47_min        =   3.2877078143340E-39
(PID.TID 0000.0001) %MON trcstat_ptracer47_mean       =   2.1927855191806E-07
(PID.TID 0000.0001) %MON trcstat_ptracer47_sd         =   1.1500704918751E-06
(PID.TID 0000.0001) %MON trcstat_ptracer47_del2       =   0.0000000000000E+00
(PID.TID 0000.0001) %MON trcstat_ptracer48_max        =   7.3153367269726E-06
(PID.TID 0000.0001) %MON trcstat_ptracer48_min        =   9.5459218922750E-37
(PID.TID 0000.0001) %MON trcstat_ptracer48_mean       =   2.1817345758115E-07
(PID.TID 0000.0001) %MON trcstat_ptracer48_sd         =   1.1434757367681E-06
(PID.TID 0000.0001) %MON trcstat_ptracer48_del2       =   0.0000000000000E+00
(PID.TID 0000.0001) %MON trcstat_ptracer49_max        =   7.3154912431496E-06
(PID.TID 0000.0001) %MON trcstat_ptracer49_min        =   3.2877078143340E-39
(PID.TID 0000.0001) %MON trcstat_ptracer49_mean       =   2.1812816178261E-07
(PID.TID 0000.0001) %MON trcstat_ptracer49_sd         =   1.1436004539495E-06
(PID.TID 0000.0001) %MON trcstat_ptracer49_del2       =   0.0000000000000E+00
(PID.TID 0000.0001) %MON trcstat_ptracer50_max        =   7.3154912431498E-06
(PID.TID 0000.0001) %MON trcstat_ptracer50_min        =   3.2877078143340E-39
(PID.TID 0000.0001) %MON trcstat_ptracer50_mean       =   2.1812816395404E-07
(PID.TID 0000.0001) %MON trcstat_ptracer50_sd         =   1.1436004536102E-06
(PID.TID 0000.0001) %MON trcstat_ptracer50_del2       =   0.0000000000000E+00
(PID.TID 0000.0001) %MON trcstat_ptracer51_max        =   7.3154912431498E-06
(PID.TID 0000.0001) %MON trcstat_ptracer51_min        =   3.2877078143340E-39
(PID.TID 0000.0001) %MON trcstat_ptracer51_mean       =   2.1812820782178E-07
(PID.TID 0000.0001) %MON trcstat_ptracer51_sd         =   1.1436004492842E-06
(PID.TID 0000.0001) %MON trcstat_ptracer51_del2       =   0.0000000000000E+00
(PID.TID 0000.0001) %MON trcstat_ptracer52_max        =   7.3154912431496E-06
(PID.TID 0000.0001) %MON trcstat_ptracer52_min        =   3.2877078143340E-39
(PID.TID 0000.0001) %MON trcstat_ptracer52_mean       =   2.1812816178261E-07
(PID.TID 0000.0001) %MON trcstat_ptracer52_sd         =   1.1436004539495E-06
(PID.TID 0000.0001) %MON trcstat_ptracer52_del2       =   0.0000000000000E+00
(PID.TID 0000.0001) %MON trcstat_ptracer53_max        =   7.3154912431507E-06
(PID.TID 0000.0001) %MON trcstat_ptracer53_min        =   3.2877078143340E-39
(PID.TID 0000.0001) %MON trcstat_ptracer53_mean       =   2.1828023609601E-07
(PID.TID 0000.0001) %MON trcstat_ptracer53_sd         =   1.1439738834888E-06
(PID.TID 0000.0001) %MON trcstat_ptracer53_del2       =   0.0000000000000E+00
(PID.TID 0000.0001) %MON trcstat_ptracer54_max        =   7.3154912431494E-06
(PID.TID 0000.0001) %MON trcstat_ptracer54_min        =   3.2877078143340E-39
(PID.TID 0000.0001) %MON trcstat_ptracer54_mean       =   2.1812816215350E-07
(PID.TID 0000.0001) %MON trcstat_ptracer54_sd         =   1.1436004538879E-06
(PID.TID 0000.0001) %MON trcstat_ptracer54_del2       =   0.0000000000000E+00
(PID.TID 0000.0001) %MON trcstat_ptracer55_max        =   7.3154912431507E-06
(PID.TID 0000.0001) %MON trcstat_ptracer55_min        =   3.2877078143340E-39
(PID.TID 0000.0001) %MON trcstat_ptracer55_mean       =   2.1812816178559E-07
(PID.TID 0000.0001) %MON trcstat_ptracer55_sd         =   1.1436004539491E-06
(PID.TID 0000.0001) %MON trcstat_ptracer55_del2       =   0.0000000000000E+00
(PID.TID 0000.0001) %MON trcstat_ptracer56_max        =   7.3154912431500E-06
(PID.TID 0000.0001) %MON trcstat_ptracer56_min        =   3.2877078143340E-39
(PID.TID 0000.0001) %MON trcstat_ptracer56_mean       =   2.1812824745065E-07
(PID.TID 0000.0001) %MON trcstat_ptracer56_sd         =   1.1436004418240E-06
(PID.TID 0000.0001) %MON trcstat_ptracer56_del2       =   0.0000000000000E+00
(PID.TID 0000.0001) %MON trcstat_ptracer57_max        =   7.3154912431497E-06
(PID.TID 0000.0001) %MON trcstat_ptracer57_min        =   3.2877078143340E-39
(PID.TID 0000.0001) %MON trcstat_ptracer57_mean       =   2.1812816178262E-07
(PID.TID 0000.0001) %MON trcstat_ptracer57_sd         =   1.1436004539495E-06
(PID.TID 0000.0001) %MON trcstat_ptracer57_del2       =   0.0000000000000E+00
(PID.TID 0000.0001) %MON trcstat_ptracer58_max        =   7.3154912431494E-06
(PID.TID 0000.0001) %MON trcstat_ptracer58_min        =   3.2877078143340E-39
(PID.TID 0000.0001) %MON trcstat_ptracer58_mean       =   2.1812816234055E-07
(PID.TID 0000.0001) %MON trcstat_ptracer58_sd         =   1.1436004538584E-06
(PID.TID 0000.0001) %MON trcstat_ptracer58_del2       =   0.0000000000000E+00
(PID.TID 0000.0001) %MON trcstat_ptracer59_max        =   7.3154912431514E-06
(PID.TID 0000.0001) %MON trcstat_ptracer59_min        =   3.2877078143340E-39
(PID.TID 0000.0001) %MON trcstat_ptracer59_mean       =   2.1812816178267E-07
(PID.TID 0000.0001) %MON trcstat_ptracer59_sd         =   1.1436004539497E-06
(PID.TID 0000.0001) %MON trcstat_ptracer59_del2       =   0.0000000000000E+00
(PID.TID 0000.0001) %MON trcstat_ptracer60_max        =   7.3154912431505E-06
(PID.TID 0000.0001) %MON trcstat_ptracer60_min        =   3.2877078143340E-39
(PID.TID 0000.0001) %MON trcstat_ptracer60_mean       =   2.1812817834524E-07
(PID.TID 0000.0001) %MON trcstat_ptracer60_sd         =   1.1436004508772E-06
(PID.TID 0000.0001) %MON trcstat_ptracer60_del2       =   0.0000000000000E+00
(PID.TID 0000.0001) %MON trcstat_ptracer61_max        =   7.3154912431505E-06
(PID.TID 0000.0001) %MON trcstat_ptracer61_min        =   3.2877078143340E-39
(PID.TID 0000.0001) %MON trcstat_ptracer61_mean       =   2.1812816178264E-07
(PID.TID 0000.0001) %MON trcstat_ptracer61_sd         =   1.1436004539496E-06
(PID.TID 0000.0001) %MON trcstat_ptracer61_del2       =   0.0000000000000E+00
(PID.TID 0000.0001) %MON trcstat_ptracer62_max        =   7.3621092824545E-06
(PID.TID 0000.0001) %MON trcstat_ptracer62_min        =   3.2877078143340E-39
(PID.TID 0000.0001) %MON trcstat_ptracer62_mean       =   2.1943952865269E-07
(PID.TID 0000.0001) %MON trcstat_ptracer62_sd         =   1.1509332236129E-06
(PID.TID 0000.0001) %MON trcstat_ptracer62_del2       =   0.0000000000000E+00
(PID.TID 0000.0001) %MON trcstat_ptracer63_max        =   7.3154912431501E-06
(PID.TID 0000.0001) %MON trcstat_ptracer63_min        =   3.2877078143340E-39
(PID.TID 0000.0001) %MON trcstat_ptracer63_mean       =   2.1812817733730E-07
(PID.TID 0000.0001) %MON trcstat_ptracer63_sd         =   1.1436004514406E-06
(PID.TID 0000.0001) %MON trcstat_ptracer63_del2       =   0.0000000000000E+00
(PID.TID 0000.0001) %MON trcstat_ptracer64_max        =   7.3154912431508E-06
(PID.TID 0000.0001) %MON trcstat_ptracer64_min        =   3.2877078143340E-39
(PID.TID 0000.0001) %MON trcstat_ptracer64_mean       =   2.1812816178265E-07
(PID.TID 0000.0001) %MON trcstat_ptracer64_sd         =   1.1436004539496E-06
(PID.TID 0000.0001) %MON trcstat_ptracer64_del2       =   0.0000000000000E+00
(PID.TID 0000.0001) %MON trcstat_ptracer65_max        =   7.3333555600322E-06
(PID.TID 0000.0001) %MON trcstat_ptracer65_min        =   3.2877078143340E-39
(PID.TID 0000.0001) %MON trcstat_ptracer65_mean       =   2.1881315457862E-07
(PID.TID 0000.0001) %MON trcstat_ptracer65_sd         =   1.1467913347937E-06
(PID.TID 0000.0001) %MON trcstat_ptracer65_del2       =   0.0000000000000E+00
(PID.TID 0000.0001) %MON trcstat_ptracer66_max        =   7.3154912431498E-06
(PID.TID 0000.0001) %MON trcstat_ptracer66_min        =   3.2877078143340E-39
(PID.TID 0000.0001) %MON trcstat_ptracer66_mean       =   2.1835494563929E-07
(PID.TID 0000.0001) %MON trcstat_ptracer66_sd         =   1.1445166127251E-06
(PID.TID 0000.0001) %MON trcstat_ptracer66_del2       =   0.0000000000000E+00
(PID.TID 0000.0001) %MON trcstat_ptracer67_max        =   7.3154912431495E-06
(PID.TID 0000.0001) %MON trcstat_ptracer67_min        =   3.2877078143340E-39
(PID.TID 0000.0001) %MON trcstat_ptracer67_mean       =   2.1812816178261E-07
(PID.TID 0000.0001) %MON trcstat_ptracer67_sd         =   1.1436004539495E-06
(PID.TID 0000.0001) %MON trcstat_ptracer67_del2       =   0.0000000000000E+00
(PID.TID 0000.0001) %MON trcstat_ptracer68_max        =   7.3965786815567E-06
(PID.TID 0000.0001) %MON trcstat_ptracer68_min        =   9.5459218922750E-37
(PID.TID 0000.0001) %MON trcstat_ptracer68_mean       =   2.2043022579239E-07
(PID.TID 0000.0001) %MON trcstat_ptracer68_sd         =   1.1558162942980E-06
(PID.TID 0000.0001) %MON trcstat_ptracer68_del2       =   0.0000000000000E+00
(PID.TID 0000.0001) %MON trcstat_ptracer69_max        =   7.3154912431497E-06
(PID.TID 0000.0001) %MON trcstat_ptracer69_min        =   3.2877078143340E-39
(PID.TID 0000.0001) %MON trcstat_ptracer69_mean       =   2.1812818109057E-07
(PID.TID 0000.0001) %MON trcstat_ptracer69_sd         =   1.1436004516014E-06
(PID.TID 0000.0001) %MON trcstat_ptracer69_del2       =   0.0000000000000E+00
(PID.TID 0000.0001) %MON trcstat_ptracer70_max        =   7.3750899220420E-06
(PID.TID 0000.0001) %MON trcstat_ptracer70_min        =   9.5459218922750E-37
(PID.TID 0000.0001) %MON trcstat_ptracer70_mean       =   2.1982796383054E-07
(PID.TID 0000.0001) %MON trcstat_ptracer70_sd         =   1.1525534132631E-06
(PID.TID 0000.0001) %MON trcstat_ptracer70_del2       =   0.0000000000000E+00
(PID.TID 0000.0001) %MON trcstat_ptracer71_max        =   7.3154912431497E-06
(PID.TID 0000.0001) %MON trcstat_ptracer71_min        =   3.2877078143340E-39
(PID.TID 0000.0001) %MON trcstat_ptracer71_mean       =   2.1813826186849E-07
(PID.TID 0000.0001) %MON trcstat_ptracer71_sd         =   1.1436115198558E-06
(PID.TID 0000.0001) %MON trcstat_ptracer71_del2       =   0.0000000000000E+00
(PID.TID 0000.0001) %MON trcstat_ptracer72_max        =   7.3154912431499E-06
(PID.TID 0000.0001) %MON trcstat_ptracer72_min        =   3.2877078143340E-39
(PID.TID 0000.0001) %MON trcstat_ptracer72_mean       =   2.1812852297200E-07
(PID.TID 0000.0001) %MON trcstat_ptracer72_sd         =   1.1436004133995E-06
(PID.TID 0000.0001) %MON trcstat_ptracer72_del2       =   0.0000000000000E+00
(PID.TID 0000.0001) %MON trcstat_ptracer73_max        =   7.3925319953071E-06
(PID.TID 0000.0001) %MON trcstat_ptracer73_min        =   9.5459218922750E-37
(PID.TID 0000.0001) %MON trcstat_ptracer73_mean       =   2.2024559540131E-07
(PID.TID 0000.0001) %MON trcstat_ptracer73_sd         =   1.1550771138622E-06
(PID.TID 0000.0001) %MON trcstat_ptracer73_del2       =   0.0000000000000E+00
(PID.TID 0000.0001) %MON trcstat_ptracer74_max        =   7.3614232187110E-06
(PID.TID 0000.0001) %MON trcstat_ptracer74_min        =   3.2877078143340E-39
(PID.TID 0000.0001) %MON trcstat_ptracer74_mean       =   2.1925097928978E-07
(PID.TID 0000.0001) %MON trcstat_ptracer74_sd         =   1.1501166254408E-06
(PID.TID 0000.0001) %MON trcstat_ptracer74_del2       =   0.0000000000000E+00
(PID.TID 0000.0001) %MON trcstat_ptracer75_max        =   7.3154912431511E-06
(PID.TID 0000.0001) %MON trcstat_ptracer75_min        =   3.2877078143340E-39
(PID.TID 0000.0001) %MON trcstat_ptracer75_mean       =   2.1812822652308E-07
(PID.TID 0000.0001) %MON trcstat_ptracer75_sd         =   1.1436004419405E-06
(PID.TID 0000.0001) %MON trcstat_ptracer75_del2       =   0.0000000000000E+00
(PID.TID 0000.0001) %MON trcstat_ptracer76_max        =   7.3153367264046E-06
(PID.TID 0000.0001) %MON trcstat_ptracer76_min        =   9.5459218922750E-37
(PID.TID 0000.0001) %MON trcstat_ptracer76_mean       =   2.1812816178255E-07
(PID.TID 0000.0001) %MON trcstat_ptracer76_sd         =   1.1434544519161E-06
(PID.TID 0000.0001) %MON trcstat_ptracer76_del2       =   0.0000000000000E+00
(PID.TID 0000.0001) %MON trcstat_ptracer77_max        =   7.3945721110545E-06
(PID.TID 0000.0001) %MON trcstat_ptracer77_min        =   9.5459218922750E-37
(PID.TID 0000.0001) %MON trcstat_ptracer77_mean       =   2.2036702228260E-07
(PID.TID 0000.0001) %MON trcstat_ptracer77_sd         =   1.1555008477455E-06
(PID.TID 0000.0001) %MON trcstat_ptracer77_del2       =   0.0000000000000E+00
(PID.TID 0000.0001) %MON trcstat_ptracer78_max        =   7.3154912431499E-06
(PID.TID 0000.0001) %MON trcstat_ptracer78_min        =   3.2877078143340E-39
(PID.TID 0000.0001) %MON trcstat_ptracer78_mean       =   2.1812816178262E-07
(PID.TID 0000.0001) %MON trcstat_ptracer78_sd         =   1.1436004539495E-06
(PID.TID 0000.0001) %MON trcstat_ptracer78_del2       =   0.0000000000000E+00
(PID.TID 0000.0001) %MON trcstat_ptracer79_max        =   7.3154912431498E-06
(PID.TID 0000.0001) %MON trcstat_ptracer79_min        =   3.2877078143340E-39
(PID.TID 0000.0001) %MON trcstat_ptracer79_mean       =   2.1812816178262E-07
(PID.TID 0000.0001) %MON trcstat_ptracer79_sd         =   1.1436004539495E-06
(PID.TID 0000.0001) %MON trcstat_ptracer79_del2       =   0.0000000000000E+00
(PID.TID 0000.0001) %MON trcstat_ptracer80_max        =   7.3810536309317E-06
(PID.TID 0000.0001) %MON trcstat_ptracer80_min        =   9.5459218922750E-37
(PID.TID 0000.0001) %MON trcstat_ptracer80_mean       =   2.2000701196352E-07
(PID.TID 0000.0001) %MON trcstat_ptracer80_sd         =   1.1534766085063E-06
(PID.TID 0000.0001) %MON trcstat_ptracer80_del2       =   0.0000000000000E+00
(PID.TID 0000.0001) %MON trcstat_ptracer81_max        =   7.3531245948487E-06
(PID.TID 0000.0001) %MON trcstat_ptracer81_min        =   3.2877078143340E-39
(PID.TID 0000.0001) %MON trcstat_ptracer81_mean       =   2.1919630696202E-07
(PID.TID 0000.0001) %MON trcstat_ptracer81_sd         =   1.1495393411348E-06
(PID.TID 0000.0001) %MON trcstat_ptracer81_del2       =   0.0000000000000E+00
(PID.TID 0000.0001) %MON trcstat_ptracer82_max        =   7.3154912431495E-06
(PID.TID 0000.0001) %MON trcstat_ptracer82_min        =   3.2877078143340E-39
(PID.TID 0000.0001) %MON trcstat_ptracer82_mean       =   2.1812873650464E-07
(PID.TID 0000.0001) %MON trcstat_ptracer82_sd         =   1.1436009284110E-06
(PID.TID 0000.0001) %MON trcstat_ptracer82_del2       =   0.0000000000000E+00
(PID.TID 0000.0001) %MON trcstat_ptracer83_max        =   7.3794006245017E-06
(PID.TID 0000.0001) %MON trcstat_ptracer83_min        =   9.5459218922750E-37
(PID.TID 0000.0001) %MON trcstat_ptracer83_mean       =   2.1987686007549E-07
(PID.TID 0000.0001) %MON trcstat_ptracer83_sd         =   1.1530663239336E-06
(PID.TID 0000.0001) %MON trcstat_ptracer83_del2       =   0.0000000000000E+00
(PID.TID 0000.0001) %MON trcstat_ptracer84_max        =   7.3621122397117E-06
(PID.TID 0000.0001) %MON trcstat_ptracer84_min        =   3.2877078143340E-39
(PID.TID 0000.0001) %MON trcstat_ptracer84_mean       =   2.1938901450921E-07
(PID.TID 0000.0001) %MON trcstat_ptracer84_sd         =   1.1507224466699E-06
(PID.TID 0000.0001) %MON trcstat_ptracer84_del2       =   0.0000000000000E+00
(PID.TID 0000.0001) %MON trcstat_ptracer85_max        =   7.3154912431498E-06
(PID.TID 0000.0001) %MON trcstat_ptracer85_min        =   3.2877078143340E-39
(PID.TID 0000.0001) %MON trcstat_ptracer85_mean       =   2.1818911805227E-07
(PID.TID 0000.0001) %MON trcstat_ptracer85_sd         =   1.1437728752712E-06
(PID.TID 0000.0001) %MON trcstat_ptracer85_del2       =   0.0000000000000E+00
(PID.TID 0000.0001) %MON trcstat_ptracer86_max        =   7.3154912431507E-06
(PID.TID 0000.0001) %MON trcstat_ptracer86_min        =   3.2877078143340E-39
(PID.TID 0000.0001) %MON trcstat_ptracer86_mean       =   2.1812816178264E-07
(PID.TID 0000.0001) %MON trcstat_ptracer86_sd         =   1.1436004539496E-06
(PID.TID 0000.0001) %MON trcstat_ptracer86_del2       =   0.0000000000000E+00
(PID.TID 0000.0001) %MON trcstat_ptracer87_max        =   7.3153367269723E-06
(PID.TID 0000.0001) %MON trcstat_ptracer87_min        =   9.5459218922750E-37
(PID.TID 0000.0001) %MON trcstat_ptracer87_mean       =   2.1812816179841E-07
(PID.TID 0000.0001) %MON trcstat_ptracer87_sd         =   1.1434544520015E-06
(PID.TID 0000.0001) %MON trcstat_ptracer87_del2       =   0.0000000000000E+00
(PID.TID 0000.0001) %MON trcstat_ptracer88_max        =   7.3154912431495E-06
(PID.TID 0000.0001) %MON trcstat_ptracer88_min        =   3.2877078143340E-39
(PID.TID 0000.0001) %MON trcstat_ptracer88_mean       =   2.1812816885289E-07
(PID.TID 0000.0001) %MON trcstat_ptracer88_sd         =   1.1436004527935E-06
(PID.TID 0000.0001) %MON trcstat_ptracer88_del2       =   0.0000000000000E+00
(PID.TID 0000.0001) %MON trcstat_ptracer89_max        =   7.3675399798959E-06
(PID.TID 0000.0001) %MON trcstat_ptracer89_min        =   3.2877078143340E-39
(PID.TID 0000.0001) %MON trcstat_ptracer89_mean       =   2.1968510335311E-07
(PID.TID 0000.0001) %MON trcstat_ptracer89_sd         =   1.1520627043032E-06
(PID.TID 0000.0001) %MON trcstat_ptracer89_del2       =   0.0000000000000E+00
(PID.TID 0000.0001) %MON trcstat_ptracer90_max        =   7.3154912431501E-06
(PID.TID 0000.0001) %MON trcstat_ptracer90_min        =   3.2877078143340E-39
(PID.TID 0000.0001) %MON trcstat_ptracer90_mean       =   2.1812816178263E-07
(PID.TID 0000.0001) %MON trcstat_ptracer90_sd         =   1.1436004539495E-06
(PID.TID 0000.0001) %MON trcstat_ptracer90_del2       =   0.0000000000000E+00
(PID.TID 0000.0001) %MON trcstat_ptracer91_max        =   7.3547890773060E-06
(PID.TID 0000.0001) %MON trcstat_ptracer91_min        =   3.2877078143340E-39
(PID.TID 0000.0001) %MON trcstat_ptracer91_mean       =   2.1906182054096E-07
(PID.TID 0000.0001) %MON trcstat_ptracer91_sd         =   1.1491277696784E-06
(PID.TID 0000.0001) %MON trcstat_ptracer91_del2       =   0.0000000000000E+00
(PID.TID 0000.0001) %MON trcstat_ptracer92_max        =   7.3154912431508E-06
(PID.TID 0000.0001) %MON trcstat_ptracer92_min        =   3.2877078143340E-39
(PID.TID 0000.0001) %MON trcstat_ptracer92_mean       =   2.1813543914628E-07
(PID.TID 0000.0001) %MON trcstat_ptracer92_sd         =   1.1435996924846E-06
(PID.TID 0000.0001) %MON trcstat_ptracer92_del2       =   0.0000000000000E+00
(PID.TID 0000.0001) %MON trcstat_ptracer93_max        =   7.3664438123395E-06
(PID.TID 0000.0001) %MON trcstat_ptracer93_min        =   3.2877078143340E-39
(PID.TID 0000.0001) %MON trcstat_ptracer93_mean       =   2.1956509082214E-07
(PID.TID 0000.0001) %MON trcstat_ptracer93_sd         =   1.1516755984974E-06
(PID.TID 0000.0001) %MON trcstat_ptracer93_del2       =   0.0000000000000E+00
(PID.TID 0000.0001) %MON trcstat_ptracer94_max        =   7.3154912431503E-06
(PID.TID 0000.0001) %MON trcstat_ptracer94_min        =   3.2877078143340E-39
(PID.TID 0000.0001) %MON trcstat_ptracer94_mean       =   2.1812816178263E-07
(PID.TID 0000.0001) %MON trcstat_ptracer94_sd         =   1.1436004539496E-06
(PID.TID 0000.0001) %MON trcstat_ptracer94_del2       =   0.0000000000000E+00
(PID.TID 0000.0001) %MON trcstat_ptracer95_max        =   7.3154912431499E-06
(PID.TID 0000.0001) %MON trcstat_ptracer95_min        =   3.2877078143340E-39
(PID.TID 0000.0001) %MON trcstat_ptracer95_mean       =   2.1813651762079E-07
(PID.TID 0000.0001) %MON trcstat_ptracer95_sd         =   1.1436073847798E-06
(PID.TID 0000.0001) %MON trcstat_ptracer95_del2       =   0.0000000000000E+00
(PID.TID 0000.0001) %MON trcstat_ptracer96_max        =   7.3154912431495E-06
(PID.TID 0000.0001) %MON trcstat_ptracer96_min        =   3.2877078143340E-39
(PID.TID 0000.0001) %MON trcstat_ptracer96_mean       =   2.1812833754980E-07
(PID.TID 0000.0001) %MON trcstat_ptracer96_sd         =   1.1436004322225E-06
(PID.TID 0000.0001) %MON trcstat_ptracer96_del2       =   0.0000000000000E+00
(PID.TID 0000.0001) %MON trcstat_ptracer97_max        =   7.3154912431497E-06
(PID.TID 0000.0001) %MON trcstat_ptracer97_min        =   3.2877078143340E-39
(PID.TID 0000.0001) %MON trcstat_ptracer97_mean       =   2.1812854476258E-07
(PID.TID 0000.0001) %MON trcstat_ptracer97_sd         =   1.1436004122271E-06
(PID.TID 0000.0001) %MON trcstat_ptracer97_del2       =   0.0000000000000E+00
(PID.TID 0000.0001) %MON trcstat_ptracer98_max        =   7.3154912431496E-06
(PID.TID 0000.0001) %MON trcstat_ptracer98_min        =   3.2877078143340E-39
(PID.TID 0000.0001) %MON trcstat_ptracer98_mean       =   2.1812816178261E-07
(PID.TID 0000.0001) %MON trcstat_ptracer98_sd         =   1.1436004539495E-06
(PID.TID 0000.0001) %MON trcstat_ptracer98_del2       =   0.0000000000000E+00
(PID.TID 0000.0001) %MON trcstat_ptracer99_max        =   7.3718256961446E-06
(PID.TID 0000.0001) %MON trcstat_ptracer99_min        =   9.5459218922750E-37
(PID.TID 0000.0001) %MON trcstat_ptracer99_mean       =   2.1977250361423E-07
(PID.TID 0000.0001) %MON trcstat_ptracer99_sd         =   1.1520688854039E-06
(PID.TID 0000.0001) %MON trcstat_ptracer99_del2       =   0.0000000000000E+00
(PID.TID 0000.0001) // =======================================================
(PID.TID 0000.0001) // End MONITOR ptracers field statistics
(PID.TID 0000.0001) // =======================================================
time,SST,SSS,fu,fv,Q,E-P,i0,i1,a,b =   3.6000E+03  2.5678E+01  0.0000E+00  0.0000E+00  0.0000E+00  0.0000E+00  0.0000E+00    12     1  5.0139E-01  4.9861E-01
time,fu0,fu1,fu =   3.6000E+03  0.0000E+00  0.0000E+00  0.0000E+00  5.013888888888889E-01  4.986111111111111E-01
(PID.TID 0000.0001) // =======================================================
(PID.TID 0000.0001) // Begin MONITOR dynamic field statistics
(PID.TID 0000.0001) // =======================================================
(PID.TID 0000.0001) %MON time_tsnumber                =                     2
(PID.TID 0000.0001) %MON time_secondsf                =   7.2000000000000E+03
(PID.TID 0000.0001) %MON dynstat_eta_max              =   0.0000000000000E+00
(PID.TID 0000.0001) %MON dynstat_eta_min              =   0.0000000000000E+00
(PID.TID 0000.0001) %MON dynstat_eta_mean             =   0.0000000000000E+00
(PID.TID 0000.0001) %MON dynstat_eta_sd               =   0.0000000000000E+00
(PID.TID 0000.0001) %MON dynstat_eta_del2             =   0.0000000000000E+00
(PID.TID 0000.0001) %MON dynstat_uvel_max             =   0.0000000000000E+00
(PID.TID 0000.0001) %MON dynstat_uvel_min             =   0.0000000000000E+00
(PID.TID 0000.0001) %MON dynstat_uvel_mean            =   0.0000000000000E+00
(PID.TID 0000.0001) %MON dynstat_uvel_sd              =   0.0000000000000E+00
(PID.TID 0000.0001) %MON dynstat_uvel_del2            =   0.0000000000000E+00
(PID.TID 0000.0001) %MON dynstat_vvel_max             =   0.0000000000000E+00
(PID.TID 0000.0001) %MON dynstat_vvel_min             =   0.0000000000000E+00
(PID.TID 0000.0001) %MON dynstat_vvel_mean            =   0.0000000000000E+00
(PID.TID 0000.0001) %MON dynstat_vvel_sd              =   0.0000000000000E+00
(PID.TID 0000.0001) %MON dynstat_vvel_del2            =   0.0000000000000E+00
(PID.TID 0000.0001) %MON dynstat_wvel_max             =   0.0000000000000E+00
(PID.TID 0000.0001) %MON dynstat_wvel_min             =   0.0000000000000E+00
(PID.TID 0000.0001) %MON dynstat_wvel_mean            =   0.0000000000000E+00
(PID.TID 0000.0001) %MON dynstat_wvel_sd              =   0.0000000000000E+00
(PID.TID 0000.0001) %MON dynstat_wvel_del2            =   0.0000000000000E+00
(PID.TID 0000.0001) %MON dynstat_theta_max            =   2.6326133202983E+01
(PID.TID 0000.0001) %MON dynstat_theta_min            =   2.6737005429265E+00
(PID.TID 0000.0001) %MON dynstat_theta_mean           =   5.4735411526788E+00
(PID.TID 0000.0001) %MON dynstat_theta_sd             =   5.1969661225680E+00
(PID.TID 0000.0001) %MON dynstat_theta_del2           =   0.0000000000000E+00
(PID.TID 0000.0001) %MON dynstat_salt_max             =   3.5000000000000E+01
(PID.TID 0000.0001) %MON dynstat_salt_min             =   3.5000000000000E+01
(PID.TID 0000.0001) %MON dynstat_salt_mean            =   3.5000000000000E+01
(PID.TID 0000.0001) %MON dynstat_salt_sd              =   7.1054273576010E-15
(PID.TID 0000.0001) %MON dynstat_salt_del2            =   0.0000000000000E+00
(PID.TID 0000.0001) %MON dynstat_sst_max              =   2.6326133202983E+01
(PID.TID 0000.0001) %MON dynstat_sst_min              =   2.6326133202983E+01
(PID.TID 0000.0001) %MON dynstat_sst_mean             =   2.6326133202983E+01
(PID.TID 0000.0001) %MON dynstat_sst_sd               =   0.0000000000000E+00
(PID.TID 0000.0001) %MON dynstat_sst_del2             =   0.0000000000000E+00
(PID.TID 0000.0001) %MON dynstat_sss_max              =   3.5000000000000E+01
(PID.TID 0000.0001) %MON dynstat_sss_min              =   3.5000000000000E+01
(PID.TID 0000.0001) %MON dynstat_sss_mean             =   3.5000000000000E+01
(PID.TID 0000.0001) %MON dynstat_sss_sd               =   0.0000000000000E+00
(PID.TID 0000.0001) %MON dynstat_sss_del2             =   0.0000000000000E+00
(PID.TID 0000.0001) %MON extforcing_qnet_max          =   0.0000000000000E+00
(PID.TID 0000.0001) %MON extforcing_qnet_min          =   0.0000000000000E+00
(PID.TID 0000.0001) %MON extforcing_qnet_mean         =   0.0000000000000E+00
(PID.TID 0000.0001) %MON extforcing_qnet_sd           =   0.0000000000000E+00
(PID.TID 0000.0001) %MON extforcing_qnet_del2         =   0.0000000000000E+00
(PID.TID 0000.0001) %MON extforcing_qsw_max           =   0.0000000000000E+00
(PID.TID 0000.0001) %MON extforcing_qsw_min           =   0.0000000000000E+00
(PID.TID 0000.0001) %MON extforcing_qsw_mean          =   0.0000000000000E+00
(PID.TID 0000.0001) %MON extforcing_qsw_sd            =   0.0000000000000E+00
(PID.TID 0000.0001) %MON extforcing_qsw_del2          =   0.0000000000000E+00
(PID.TID 0000.0001) %MON extforcing_empmr_max         =   0.0000000000000E+00
(PID.TID 0000.0001) %MON extforcing_empmr_min         =   0.0000000000000E+00
(PID.TID 0000.0001) %MON extforcing_empmr_mean        =   0.0000000000000E+00
(PID.TID 0000.0001) %MON extforcing_empmr_sd          =   0.0000000000000E+00
(PID.TID 0000.0001) %MON extforcing_empmr_del2        =   0.0000000000000E+00
(PID.TID 0000.0001) %MON extforcing_fu_max            =   0.0000000000000E+00
(PID.TID 0000.0001) %MON extforcing_fu_min            =   0.0000000000000E+00
(PID.TID 0000.0001) %MON extforcing_fu_mean           =   0.0000000000000E+00
(PID.TID 0000.0001) %MON extforcing_fu_sd             =   0.0000000000000E+00
(PID.TID 0000.0001) %MON extforcing_fu_del2           =   0.0000000000000E+00
(PID.TID 0000.0001) %MON extforcing_fv_max            =   0.0000000000000E+00
(PID.TID 0000.0001) %MON extforcing_fv_min            =   0.0000000000000E+00
(PID.TID 0000.0001) %MON extforcing_fv_mean           =   0.0000000000000E+00
(PID.TID 0000.0001) %MON extforcing_fv_sd             =   0.0000000000000E+00
(PID.TID 0000.0001) %MON extforcing_fv_del2           =   0.0000000000000E+00
(PID.TID 0000.0001) %MON advcfl_uvel_max              =   0.0000000000000E+00
(PID.TID 0000.0001) %MON advcfl_vvel_max              =   0.0000000000000E+00
(PID.TID 0000.0001) %MON advcfl_wvel_max              =   0.0000000000000E+00
(PID.TID 0000.0001) %MON advcfl_W_hf_max              =   0.0000000000000E+00
(PID.TID 0000.0001) %MON pe_b_mean                    =   0.0000000000000E+00
(PID.TID 0000.0001) %MON ke_max                       =   0.0000000000000E+00
(PID.TID 0000.0001) %MON ke_mean                      =   0.0000000000000E+00
(PID.TID 0000.0001) %MON ke_vol                       =   4.1199767883485E+13
(PID.TID 0000.0001) %MON vort_r_min                   =   0.0000000000000E+00
(PID.TID 0000.0001) %MON vort_r_max                   =   0.0000000000000E+00
(PID.TID 0000.0001) %MON vort_a_mean                  =  -4.5067801836625E-05
(PID.TID 0000.0001) %MON vort_a_sd                    =  -4.1359030627651E-25
(PID.TID 0000.0001) %MON vort_p_mean                  =  -4.5067801836625E-05
(PID.TID 0000.0001) %MON vort_p_sd                    =   0.0000000000000E+00
(PID.TID 0000.0001) %MON surfExpan_theta_mean         =   0.0000000000000E+00
(PID.TID 0000.0001) %MON surfExpan_salt_mean          =   0.0000000000000E+00
(PID.TID 0000.0001) // =======================================================
(PID.TID 0000.0001) // End MONITOR dynamic field statistics
(PID.TID 0000.0001) // =======================================================
(PID.TID 0000.0001) // =======================================================
(PID.TID 0000.0001) // Begin MONITOR ptracer field statistics
(PID.TID 0000.0001) // =======================================================
(PID.TID 0000.0001) %MON trcstat_ptracer01_max        =   2.2436998357850E+00
(PID.TID 0000.0001) %MON trcstat_ptracer01_min        =   2.1025343892714E-01
(PID.TID 0000.0001) %MON trcstat_ptracer01_mean       =   1.5821339718137E+00
(PID.TID 0000.0001) %MON trcstat_ptracer01_sd         =   4.6735002132242E-01
(PID.TID 0000.0001) %MON trcstat_ptracer01_del2       =   0.0000000000000E+00
(PID.TID 0000.0001) %MON trcstat_ptracer02_max        =   3.3903496291054E+01
(PID.TID 0000.0001) %MON trcstat_ptracer02_min        =   4.6392542156846E-02
(PID.TID 0000.0001) %MON trcstat_ptracer02_mean       =   2.3502391027399E+01
(PID.TID 0000.0001) %MON trcstat_ptracer02_sd         =   7.8161986308845E+00
(PID.TID 0000.0001) %MON trcstat_ptracer02_del2       =   0.0000000000000E+00
(PID.TID 0000.0001) %MON trcstat_ptracer03_max        =   1.3002603156867E-03
(PID.TID 0000.0001) %MON trcstat_ptracer03_min        =   1.2999707842917E-03
(PID.TID 0000.0001) %MON trcstat_ptracer03_mean       =   1.2999718327301E-03
(PID.TID 0000.0001) %MON trcstat_ptracer03_sd         =   1.5460313365856E-08
(PID.TID 0000.0001) %MON trcstat_ptracer03_del2       =   0.0000000000000E+00
(PID.TID 0000.0001) %MON trcstat_ptracer04_max        =   3.9387401115092E+01
(PID.TID 0000.0001) %MON trcstat_ptracer04_min        =   1.2247971082712E+00
(PID.TID 0000.0001) %MON trcstat_ptracer04_mean       =   2.9621889901808E+01
(PID.TID 0000.0001) %MON trcstat_ptracer04_sd         =   1.1270585243598E+01
(PID.TID 0000.0001) %MON trcstat_ptracer04_del2       =   0.0000000000000E+00
(PID.TID 0000.0001) %MON trcstat_ptracer05_max        =   5.1125897542046E-03
(PID.TID 0000.0001) %MON trcstat_ptracer05_min        =   9.0075136226659E-35
(PID.TID 0000.0001) %MON trcstat_ptracer05_mean       =   2.1466085187321E-04
(PID.TID 0000.0001) %MON trcstat_ptracer05_sd         =   9.2416634152449E-04
(PID.TID 0000.0001) %MON trcstat_ptracer05_del2       =   0.0000000000000E+00
(PID.TID 0000.0001) %MON trcstat_ptracer06_max        =   8.1801436067273E-02
(PID.TID 0000.0001) %MON trcstat_ptracer06_min        =   1.4412021796265E-33
(PID.TID 0000.0001) %MON trcstat_ptracer06_mean       =   3.4345736299713E-03
(PID.TID 0000.0001) %MON trcstat_ptracer06_sd         =   1.4786661464392E-02
(PID.TID 0000.0001) %MON trcstat_ptracer06_del2       =   0.0000000000000E+00
(PID.TID 0000.0001) %MON trcstat_ptracer07_max        =   5.1125893949405E-06
(PID.TID 0000.0001) %MON trcstat_ptracer07_min        =   9.0075000861858E-38
(PID.TID 0000.0001) %MON trcstat_ptracer07_mean       =   2.1466085217946E-07
(PID.TID 0000.0001) %MON trcstat_ptracer07_sd         =   9.2416634118268E-07
(PID.TID 0000.0001) %MON trcstat_ptracer07_del2       =   0.0000000000000E+00
(PID.TID 0000.0001) %MON trcstat_ptracer08_max        =   1.0332884525178E-09
(PID.TID 0000.0001) %MON trcstat_ptracer08_min        =   1.1524772983312E-36
(PID.TID 0000.0001) %MON trcstat_ptracer08_mean       =   1.3664237475972E-10
(PID.TID 0000.0001) %MON trcstat_ptracer08_sd         =   2.4992966858614E-10
(PID.TID 0000.0001) %MON trcstat_ptracer08_del2       =   0.0000000000000E+00
(PID.TID 0000.0001) %MON trcstat_ptracer09_max        =   1.6532615240284E-08
(PID.TID 0000.0001) %MON trcstat_ptracer09_min        =   1.8439636773299E-35
(PID.TID 0000.0001) %MON trcstat_ptracer09_mean       =   2.1862779961555E-09
(PID.TID 0000.0001) %MON trcstat_ptracer09_sd         =   3.9988746973783E-09
(PID.TID 0000.0001) %MON trcstat_ptracer09_del2       =   0.0000000000000E+00
(PID.TID 0000.0001) %MON trcstat_ptracer10_max        =   1.0332884170590E-12
(PID.TID 0000.0001) %MON trcstat_ptracer10_min        =   1.1524772155911E-39
(PID.TID 0000.0001) %MON trcstat_ptracer10_mean       =   1.3664236574118E-13
(PID.TID 0000.0001) %MON trcstat_ptracer10_sd         =   2.4992965433176E-13
(PID.TID 0000.0001) %MON trcstat_ptracer10_del2       =   0.0000000000000E+00
(PID.TID 0000.0001) %MON trcstat_ptracer11_max        =   4.2425781638138E-09
(PID.TID 0000.0001) %MON trcstat_ptracer11_min        =   6.7894135940394E-36
(PID.TID 0000.0001) %MON trcstat_ptracer11_mean       =   5.1428139464645E-10
(PID.TID 0000.0001) %MON trcstat_ptracer11_sd         =   1.0349937450094E-09
(PID.TID 0000.0001) %MON trcstat_ptracer11_del2       =   0.0000000000000E+00
(PID.TID 0000.0001) %MON trcstat_ptracer12_max        =   1.0332398516640E-09
(PID.TID 0000.0001) %MON trcstat_ptracer12_min        =   1.1524772983293E-36
(PID.TID 0000.0001) %MON trcstat_ptracer12_mean       =   1.3664099340476E-10
(PID.TID 0000.0001) %MON trcstat_ptracer12_sd         =   2.4992503687396E-10
(PID.TID 0000.0001) %MON trcstat_ptracer12_del2       =   0.0000000000000E+00
(PID.TID 0000.0001) %MON trcstat_ptracer13_max        =   1.6531837626624E-08
(PID.TID 0000.0001) %MON trcstat_ptracer13_min        =   1.8439636773269E-35
(PID.TID 0000.0001) %MON trcstat_ptracer13_mean       =   2.1862558944761E-09
(PID.TID 0000.0001) %MON trcstat_ptracer13_sd         =   3.9988005899834E-09
(PID.TID 0000.0001) %MON trcstat_ptracer13_del2       =   0.0000000000000E+00
(PID.TID 0000.0001) %MON trcstat_ptracer14_max        =   1.0332398162052E-12
(PID.TID 0000.0001) %MON trcstat_ptracer14_min        =   1.1524772155893E-39
(PID.TID 0000.0001) %MON trcstat_ptracer14_mean       =   1.3664098438621E-13
(PID.TID 0000.0001) %MON trcstat_ptracer14_sd         =   2.4992502261931E-13
(PID.TID 0000.0001) %MON trcstat_ptracer14_del2       =   0.0000000000000E+00
(PID.TID 0000.0001) %MON trcstat_ptracer15_max        =   4.2425781639275E-09
(PID.TID 0000.0001) %MON trcstat_ptracer15_min        =   6.7894135940391E-36
(PID.TID 0000.0001) %MON trcstat_ptracer15_mean       =   5.1428684094170E-10
(PID.TID 0000.0001) %MON trcstat_ptracer15_sd         =   1.0349910392979E-09
(PID.TID 0000.0001) %MON trcstat_ptracer15_del2       =   0.0000000000000E+00
(PID.TID 0000.0001) %MON trcstat_ptracer16_max        =   2.7199710269509E-04
(PID.TID 0000.0001) %MON trcstat_ptracer16_min        =   1.1748670965339E-06
(PID.TID 0000.0001) %MON trcstat_ptracer16_mean       =   7.8838085082058E-05
(PID.TID 0000.0001) %MON trcstat_ptracer16_sd         =   9.6480602318547E-05
(PID.TID 0000.0001) %MON trcstat_ptracer16_del2       =   0.0000000000000E+00
(PID.TID 0000.0001) %MON trcstat_ptracer17_max        =   4.3519536431214E-03
(PID.TID 0000.0001) %MON trcstat_ptracer17_min        =   1.8797873544542E-05
(PID.TID 0000.0001) %MON trcstat_ptracer17_mean       =   1.2614093613129E-03
(PID.TID 0000.0001) %MON trcstat_ptracer17_sd         =   1.5436896370967E-03
(PID.TID 0000.0001) %MON trcstat_ptracer17_del2       =   0.0000000000000E+00
(PID.TID 0000.0001) %MON trcstat_ptracer18_max        =   2.7199711852782E-07
(PID.TID 0000.0001) %MON trcstat_ptracer18_min        =   1.1748669679955E-09
(PID.TID 0000.0001) %MON trcstat_ptracer18_mean       =   7.8838085607800E-08
(PID.TID 0000.0001) %MON trcstat_ptracer18_sd         =   9.6480604374591E-08
(PID.TID 0000.0001) %MON trcstat_ptracer18_del2       =   0.0000000000000E+00
(PID.TID 0000.0001) %MON trcstat_ptracer19_max        =   1.6246073438269E-02
(PID.TID 0000.0001) %MON trcstat_ptracer19_min        =   1.1391880996625E-03
(PID.TID 0000.0001) %MON trcstat_ptracer19_mean       =   5.4882932124917E-03
(PID.TID 0000.0001) %MON trcstat_ptracer19_sd         =   5.1699207725356E-03
(PID.TID 0000.0001) %MON trcstat_ptracer19_del2       =   0.0000000000000E+00
(PID.TID 0000.0001) %MON trcstat_ptracer20_max        =   2.5621066082869E-02
(PID.TID 0000.0001) %MON trcstat_ptracer20_min        =   1.8764847993847E-07
(PID.TID 0000.0001) %MON trcstat_ptracer20_mean       =   6.0603082389350E-04
(PID.TID 0000.0001) %MON trcstat_ptracer20_sd         =   3.2504346050207E-03
(PID.TID 0000.0001) %MON trcstat_ptracer20_del2       =   0.0000000000000E+00
(PID.TID 0000.0001) %MON trcstat_ptracer21_max        =   1.8252094193115E-02
(PID.TID 0000.0001) %MON trcstat_ptracer21_min        =   3.8786224039580E-06
(PID.TID 0000.0001) %MON trcstat_ptracer21_mean       =   6.0463717718566E-04
(PID.TID 0000.0001) %MON trcstat_ptracer21_sd         =   1.9424859890367E-03
(PID.TID 0000.0001) %MON trcstat_ptracer21_del2       =   0.0000000000000E+00
(PID.TID 0000.0001) %MON trcstat_ptracer22_max        =   7.2846474380659E-06
(PID.TID 0000.0001) %MON trcstat_ptracer22_min        =   6.9529747233172E-34
(PID.TID 0000.0001) %MON trcstat_ptracer22_mean       =   2.1735613792514E-07
(PID.TID 0000.0001) %MON trcstat_ptracer22_sd         =   1.1386812129980E-06
(PID.TID 0000.0001) %MON trcstat_ptracer22_del2       =   0.0000000000000E+00
(PID.TID 0000.0001) %MON trcstat_ptracer23_max        =   7.3616597899570E-06
(PID.TID 0000.0001) %MON trcstat_ptracer23_min        =   1.6411352426133E-38
(PID.TID 0000.0001) %MON trcstat_ptracer23_mean       =   2.1934563667820E-07
(PID.TID 0000.0001) %MON trcstat_ptracer23_sd         =   1.1508668278719E-06
(PID.TID 0000.0001) %MON trcstat_ptracer23_del2       =   0.0000000000000E+00
(PID.TID 0000.0001) %MON trcstat_ptracer24_max        =   7.2846474380664E-06
(PID.TID 0000.0001) %MON trcstat_ptracer24_min        =   6.9529747233172E-34
(PID.TID 0000.0001) %MON trcstat_ptracer24_mean       =   2.1721929442092E-07
(PID.TID 0000.0001) %MON trcstat_ptracer24_sd         =   1.1385393841787E-06
(PID.TID 0000.0001) %MON trcstat_ptracer24_del2       =   0.0000000000000E+00
(PID.TID 0000.0001) %MON trcstat_ptracer25_max        =   7.4115156007304E-06
(PID.TID 0000.0001) %MON trcstat_ptracer25_min        =   6.9529747233172E-34
(PID.TID 0000.0001) %MON trcstat_ptracer25_mean       =   2.2097023744515E-07
(PID.TID 0000.0001) %MON trcstat_ptracer25_sd         =   1.1580085543491E-06
(PID.TID 0000.0001) %MON trcstat_ptracer25_del2       =   0.0000000000000E+00
(PID.TID 0000.0001) %MON trcstat_ptracer26_max        =   7.4050131903753E-06
(PID.TID 0000.0001) %MON trcstat_ptracer26_min        =   1.6411352426133E-38
(PID.TID 0000.0001) %MON trcstat_ptracer26_mean       =   2.2049024208614E-07
(PID.TID 0000.0001) %MON trcstat_ptracer26_sd         =   1.1569125942553E-06
(PID.TID 0000.0001) %MON trcstat_ptracer26_del2       =   0.0000000000000E+00
(PID.TID 0000.0001) %MON trcstat_ptracer27_max        =   7.2849549268336E-06
(PID.TID 0000.0001) %MON trcstat_ptracer27_min        =   1.6411352426133E-38
(PID.TID 0000.0001) %MON trcstat_ptracer27_mean       =   2.1721930216060E-07
(PID.TID 0000.0001) %MON trcstat_ptracer27_sd         =   1.1388296536045E-06
(PID.TID 0000.0001) %MON trcstat_ptracer27_del2       =   0.0000000000000E+00
(PID.TID 0000.0001) %MON trcstat_ptracer28_max        =   7.3497130699517E-06
(PID.TID 0000.0001) %MON trcstat_ptracer28_min        =   1.6411352426133E-38
(PID.TID 0000.0001) %MON trcstat_ptracer28_mean       =   2.1902161992210E-07
(PID.TID 0000.0001) %MON trcstat_ptracer28_sd         =   1.1489115619140E-06
(PID.TID 0000.0001) %MON trcstat_ptracer28_del2       =   0.0000000000000E+00
(PID.TID 0000.0001) %MON trcstat_ptracer29_max        =   7.2849549268323E-06
(PID.TID 0000.0001) %MON trcstat_ptracer29_min        =   1.6411352426133E-38
(PID.TID 0000.0001) %MON trcstat_ptracer29_mean       =   2.1729544846026E-07
(PID.TID 0000.0001) %MON trcstat_ptracer29_sd         =   1.1391172018710E-06
(PID.TID 0000.0001) %MON trcstat_ptracer29_del2       =   0.0000000000000E+00
(PID.TID 0000.0001) %MON trcstat_ptracer30_max        =   7.3088009253380E-06
(PID.TID 0000.0001) %MON trcstat_ptracer30_min        =   1.6411352426133E-38
(PID.TID 0000.0001) %MON trcstat_ptracer30_mean       =   2.1837536638441E-07
(PID.TID 0000.0001) %MON trcstat_ptracer30_sd         =   1.1439767934603E-06
(PID.TID 0000.0001) %MON trcstat_ptracer30_del2       =   0.0000000000000E+00
(PID.TID 0000.0001) %MON trcstat_ptracer31_max        =   7.4275777949260E-06
(PID.TID 0000.0001) %MON trcstat_ptracer31_min        =   1.6411352426133E-38
(PID.TID 0000.0001) %MON trcstat_ptracer31_mean       =   2.2116994381149E-07
(PID.TID 0000.0001) %MON trcstat_ptracer31_sd         =   1.1605377462749E-06
(PID.TID 0000.0001) %MON trcstat_ptracer31_del2       =   0.0000000000000E+00
(PID.TID 0000.0001) %MON trcstat_ptracer32_max        =   7.2849549268355E-06
(PID.TID 0000.0001) %MON trcstat_ptracer32_min        =   1.6411352426133E-38
(PID.TID 0000.0001) %MON trcstat_ptracer32_mean       =   2.1721929438950E-07
(PID.TID 0000.0001) %MON trcstat_ptracer32_sd         =   1.1388296549328E-06
(PID.TID 0000.0001) %MON trcstat_ptracer32_del2       =   0.0000000000000E+00
(PID.TID 0000.0001) %MON trcstat_ptracer33_max        =   7.2849549268322E-06
(PID.TID 0000.0001) %MON trcstat_ptracer33_min        =   1.6411352426133E-38
(PID.TID 0000.0001) %MON trcstat_ptracer33_mean       =   2.1721929438940E-07
(PID.TID 0000.0001) %MON trcstat_ptracer33_sd         =   1.1388296549323E-06
(PID.TID 0000.0001) %MON trcstat_ptracer33_del2       =   0.0000000000000E+00
(PID.TID 0000.0001) %MON trcstat_ptracer34_max        =   7.3556344795567E-06
(PID.TID 0000.0001) %MON trcstat_ptracer34_min        =   1.6411352426133E-38
(PID.TID 0000.0001) %MON trcstat_ptracer34_mean       =   2.1894982955755E-07
(PID.TID 0000.0001) %MON trcstat_ptracer34_sd         =   1.1489606636898E-06
(PID.TID 0000.0001) %MON trcstat_ptracer34_del2       =   0.0000000000000E+00
(PID.TID 0000.0001) %MON trcstat_ptracer35_max        =   7.2846474369348E-06
(PID.TID 0000.0001) %MON trcstat_ptracer35_min        =   6.9529747233172E-34
(PID.TID 0000.0001) %MON trcstat_ptracer35_mean       =   2.1721929438930E-07
(PID.TID 0000.0001) %MON trcstat_ptracer35_sd         =   1.1385393840085E-06
(PID.TID 0000.0001) %MON trcstat_ptracer35_del2       =   0.0000000000000E+00
(PID.TID 0000.0001) %MON trcstat_ptracer36_max        =   7.4390262072439E-06
(PID.TID 0000.0001) %MON trcstat_ptracer36_min        =   1.6411352426133E-38
(PID.TID 0000.0001) %MON trcstat_ptracer36_mean       =   2.2147274238674E-07
(PID.TID 0000.0001) %MON trcstat_ptracer36_sd         =   1.1622982618470E-06
(PID.TID 0000.0001) %MON trcstat_ptracer36_del2       =   0.0000000000000E+00
(PID.TID 0000.0001) %MON trcstat_ptracer37_max        =   7.2849555374577E-06
(PID.TID 0000.0001) %MON trcstat_ptracer37_min        =   1.6411352426133E-38
(PID.TID 0000.0001) %MON trcstat_ptracer37_mean       =   2.1764833345880E-07
(PID.TID 0000.0001) %MON trcstat_ptracer37_sd         =   1.1405357248253E-06
(PID.TID 0000.0001) %MON trcstat_ptracer37_del2       =   0.0000000000000E+00
(PID.TID 0000.0001) %MON trcstat_ptracer38_max        =   7.3840393039543E-06
(PID.TID 0000.0001) %MON trcstat_ptracer38_min        =   1.6411352426133E-38
(PID.TID 0000.0001) %MON trcstat_ptracer38_mean       =   2.1982514884282E-07
(PID.TID 0000.0001) %MON trcstat_ptracer38_sd         =   1.1536940682788E-06
(PID.TID 0000.0001) %MON trcstat_ptracer38_del2       =   0.0000000000000E+00
(PID.TID 0000.0001) %MON trcstat_ptracer39_max        =   7.3710035346886E-06
(PID.TID 0000.0001) %MON trcstat_ptracer39_min        =   6.9529747233172E-34
(PID.TID 0000.0001) %MON trcstat_ptracer39_mean       =   2.1980263911958E-07
(PID.TID 0000.0001) %MON trcstat_ptracer39_sd         =   1.1518163911188E-06
(PID.TID 0000.0001) %MON trcstat_ptracer39_del2       =   0.0000000000000E+00
(PID.TID 0000.0001) %MON trcstat_ptracer40_max        =   7.2846474380656E-06
(PID.TID 0000.0001) %MON trcstat_ptracer40_min        =   6.9529747233172E-34
(PID.TID 0000.0001) %MON trcstat_ptracer40_mean       =   2.1721929442090E-07
(PID.TID 0000.0001) %MON trcstat_ptracer40_sd         =   1.1385393841786E-06
(PID.TID 0000.0001) %MON trcstat_ptracer40_del2       =   0.0000000000000E+00
(PID.TID 0000.0001) %MON trcstat_ptracer41_max        =   7.2849549268327E-06
(PID.TID 0000.0001) %MON trcstat_ptracer41_min        =   1.6411352426133E-38
(PID.TID 0000.0001) %MON trcstat_ptracer41_mean       =   2.1722002341325E-07
(PID.TID 0000.0001) %MON trcstat_ptracer41_sd         =   1.1388295758785E-06
(PID.TID 0000.0001) %MON trcstat_ptracer41_del2       =   0.0000000000000E+00
(PID.TID 0000.0001) %MON trcstat_ptracer42_max        =   7.2849549268332E-06
(PID.TID 0000.0001) %MON trcstat_ptracer42_min        =   1.6411352426133E-38
(PID.TID 0000.0001) %MON trcstat_ptracer42_mean       =   2.1721929438942E-07
(PID.TID 0000.0001) %MON trcstat_ptracer42_sd         =   1.1388296549325E-06
(PID.TID 0000.0001) %MON trcstat_ptracer42_del2       =   0.0000000000000E+00
(PID.TID 0000.0001) %MON trcstat_ptracer43_max        =   7.2849549268333E-06
(PID.TID 0000.0001) %MON trcstat_ptracer43_min        =   1.6411352426133E-38
(PID.TID 0000.0001) %MON trcstat_ptracer43_mean       =   2.1721930519219E-07
(PID.TID 0000.0001) %MON trcstat_ptracer43_sd         =   1.1388296531324E-06
(PID.TID 0000.0001) %MON trcstat_ptracer43_del2       =   0.0000000000000E+00
(PID.TID 0000.0001) %MON trcstat_ptracer44_max        =   7.3645281809117E-06
(PID.TID 0000.0001) %MON trcstat_ptracer44_min        =   1.6411352426133E-38
(PID.TID 0000.0001) %MON trcstat_ptracer44_mean       =   2.1935445880644E-07
(PID.TID 0000.0001) %MON trcstat_ptracer44_sd         =   1.1510182285961E-06
(PID.TID 0000.0001) %MON trcstat_ptracer44_del2       =   0.0000000000000E+00
(PID.TID 0000.0001) %MON trcstat_ptracer45_max        =   7.2849549268335E-06
(PID.TID 0000.0001) %MON trcstat_ptracer45_min        =   1.6411352426133E-38
(PID.TID 0000.0001) %MON trcstat_ptracer45_mean       =   2.1721932501268E-07
(PID.TID 0000.0001) %MON trcstat_ptracer45_sd         =   1.1388296499932E-06
(PID.TID 0000.0001) %MON trcstat_ptracer45_del2       =   0.0000000000000E+00
(PID.TID 0000.0001) %MON trcstat_ptracer46_max        =   7.4467591902792E-06
(PID.TID 0000.0001) %MON trcstat_ptracer46_min        =   6.9529747233172E-34
(PID.TID 0000.0001) %MON trcstat_ptracer46_mean       =   2.2176450029751E-07
(PID.TID 0000.0001) %MON trcstat_ptracer46_sd         =   1.1632291394939E-06
(PID.TID 0000.0001) %MON trcstat_ptracer46_del2       =   0.0000000000000E+00
(PID.TID 0000.0001) %MON trcstat_ptracer47_max        =   7.3665836358797E-06
(PID.TID 0000.0001) %MON trcstat_ptracer47_min        =   1.6411352426133E-38
(PID.TID 0000.0001) %MON trcstat_ptracer47_mean       =   2.1951819414189E-07
(PID.TID 0000.0001) %MON trcstat_ptracer47_sd         =   1.1517596967149E-06
(PID.TID 0000.0001) %MON trcstat_ptracer47_del2       =   0.0000000000000E+00
(PID.TID 0000.0001) %MON trcstat_ptracer48_max        =   7.2846474380652E-06
(PID.TID 0000.0001) %MON trcstat_ptracer48_min        =   6.9529747233172E-34
(PID.TID 0000.0001) %MON trcstat_ptracer48_mean       =   2.1730977739988E-07
(PID.TID 0000.0001) %MON trcstat_ptracer48_sd         =   1.1385819552240E-06
(PID.TID 0000.0001) %MON trcstat_ptracer48_del2       =   0.0000000000000E+00
(PID.TID 0000.0001) %MON trcstat_ptracer49_max        =   7.2849549268325E-06
(PID.TID 0000.0001) %MON trcstat_ptracer49_min        =   1.6411352426133E-38
(PID.TID 0000.0001) %MON trcstat_ptracer49_mean       =   2.1721929438941E-07
(PID.TID 0000.0001) %MON trcstat_ptracer49_sd         =   1.1388296549324E-06
(PID.TID 0000.0001) %MON trcstat_ptracer49_del2       =   0.0000000000000E+00
(PID.TID 0000.0001) %MON trcstat_ptracer50_max        =   7.2849549268331E-06
(PID.TID 0000.0001) %MON trcstat_ptracer50_min        =   1.6411352426133E-38
(PID.TID 0000.0001) %MON trcstat_ptracer50_mean       =   2.1721929882501E-07
(PID.TID 0000.0001) %MON trcstat_ptracer50_sd         =   1.1388296542395E-06
(PID.TID 0000.0001) %MON trcstat_ptracer50_del2       =   0.0000000000000E+00
(PID.TID 0000.0001) %MON trcstat_ptracer51_max        =   7.2849549268331E-06
(PID.TID 0000.0001) %MON trcstat_ptracer51_min        =   1.6411352426133E-38
(PID.TID 0000.0001) %MON trcstat_ptracer51_mean       =   2.1721938926181E-07
(PID.TID 0000.0001) %MON trcstat_ptracer51_sd         =   1.1388296453311E-06
(PID.TID 0000.0001) %MON trcstat_ptracer51_del2       =   0.0000000000000E+00
(PID.TID 0000.0001) %MON trcstat_ptracer52_max        =   7.2849549268326E-06
(PID.TID 0000.0001) %MON trcstat_ptracer52_min        =   1.6411352426133E-38
(PID.TID 0000.0001) %MON trcstat_ptracer52_mean       =   2.1721929438942E-07
(PID.TID 0000.0001) %MON trcstat_ptracer52_sd         =   1.1388296549324E-06
(PID.TID 0000.0001) %MON trcstat_ptracer52_del2       =   0.0000000000000E+00
(PID.TID 0000.0001) %MON trcstat_ptracer53_max        =   7.2849549268351E-06
(PID.TID 0000.0001) %MON trcstat_ptracer53_min        =   1.6411352426133E-38
(PID.TID 0000.0001) %MON trcstat_ptracer53_mean       =   2.1752258261893E-07
(PID.TID 0000.0001) %MON trcstat_ptracer53_sd         =   1.1395746580376E-06
(PID.TID 0000.0001) %MON trcstat_ptracer53_del2       =   0.0000000000000E+00
(PID.TID 0000.0001) %MON trcstat_ptracer54_max        =   7.2849549268323E-06
(PID.TID 0000.0001) %MON trcstat_ptracer54_min        =   1.6411352426133E-38
(PID.TID 0000.0001) %MON trcstat_ptracer54_mean       =   2.1721929514544E-07
(PID.TID 0000.0001) %MON trcstat_ptracer54_sd         =   1.1388296548070E-06
(PID.TID 0000.0001) %MON trcstat_ptracer54_del2       =   0.0000000000000E+00
(PID.TID 0000.0001) %MON trcstat_ptracer55_max        =   7.2849549268347E-06
(PID.TID 0000.0001) %MON trcstat_ptracer55_min        =   1.6411352426133E-38
(PID.TID 0000.0001) %MON trcstat_ptracer55_mean       =   2.1721929439824E-07
(PID.TID 0000.0001) %MON trcstat_ptracer55_sd         =   1.1388296549310E-06
(PID.TID 0000.0001) %MON trcstat_ptracer55_del2       =   0.0000000000000E+00
(PID.TID 0000.0001) %MON trcstat_ptracer56_max        =   7.2849549268335E-06
(PID.TID 0000.0001) %MON trcstat_ptracer56_min        =   1.6411352426133E-38
(PID.TID 0000.0001) %MON trcstat_ptracer56_mean       =   2.1721946535266E-07
(PID.TID 0000.0001) %MON trcstat_ptracer56_sd         =   1.1388296307359E-06
(PID.TID 0000.0001) %MON trcstat_ptracer56_del2       =   0.0000000000000E+00
(PID.TID 0000.0001) %MON trcstat_ptracer57_max        =   7.2849549268329E-06
(PID.TID 0000.0001) %MON trcstat_ptracer57_min        =   1.6411352426133E-38
(PID.TID 0000.0001) %MON trcstat_ptracer57_mean       =   2.1721929438942E-07
(PID.TID 0000.0001) %MON trcstat_ptracer57_sd         =   1.1388296549325E-06
(PID.TID 0000.0001) %MON trcstat_ptracer57_del2       =   0.0000000000000E+00
(PID.TID 0000.0001) %MON trcstat_ptracer58_max        =   7.2849549268322E-06
(PID.TID 0000.0001) %MON trcstat_ptracer58_min        =   1.6411352426133E-38
(PID.TID 0000.0001) %MON trcstat_ptracer58_mean       =   2.1721929552747E-07
(PID.TID 0000.0001) %MON trcstat_ptracer58_sd         =   1.1388296547467E-06
(PID.TID 0000.0001) %MON trcstat_ptracer58_del2       =   0.0000000000000E+00
(PID.TID 0000.0001) %MON trcstat_ptracer59_max        =   7.2849549268362E-06
(PID.TID 0000.0001) %MON trcstat_ptracer59_min        =   1.6411352426133E-38
(PID.TID 0000.0001) %MON trcstat_ptracer59_mean       =   2.1721929438952E-07
(PID.TID 0000.0001) %MON trcstat_ptracer59_sd         =   1.1388296549329E-06
(PID.TID 0000.0001) %MON trcstat_ptracer59_del2       =   0.0000000000000E+00
(PID.TID 0000.0001) %MON trcstat_ptracer60_max        =   7.2849549268345E-06
(PID.TID 0000.0001) %MON trcstat_ptracer60_min        =   1.6411352426133E-38
(PID.TID 0000.0001) %MON trcstat_ptracer60_mean       =   2.1721932740450E-07
(PID.TID 0000.0001) %MON trcstat_ptracer60_sd         =   1.1388296488084E-06
(PID.TID 0000.0001) %MON trcstat_ptracer60_del2       =   0.0000000000000E+00
(PID.TID 0000.0001) %MON trcstat_ptracer61_max        =   7.2849549268344E-06
(PID.TID 0000.0001) %MON trcstat_ptracer61_min        =   1.6411352426133E-38
(PID.TID 0000.0001) %MON trcstat_ptracer61_mean       =   2.1721929438946E-07
(PID.TID 0000.0001) %MON trcstat_ptracer61_sd         =   1.1388296549327E-06
(PID.TID 0000.0001) %MON trcstat_ptracer61_del2       =   0.0000000000000E+00
(PID.TID 0000.0001) %MON trcstat_ptracer62_max        =   7.3781481076530E-06
(PID.TID 0000.0001) %MON trcstat_ptracer62_min        =   1.6411352426133E-38
(PID.TID 0000.0001) %MON trcstat_ptracer62_mean       =   2.1984120823948E-07
(PID.TID 0000.0001) %MON trcstat_ptracer62_sd         =   1.1534913210409E-06
(PID.TID 0000.0001) %MON trcstat_ptracer62_del2       =   0.0000000000000E+00
(PID.TID 0000.0001) %MON trcstat_ptracer63_max        =   7.2849549268336E-06
(PID.TID 0000.0001) %MON trcstat_ptracer63_min        =   1.6411352426133E-38
(PID.TID 0000.0001) %MON trcstat_ptracer63_mean       =   2.1721932541424E-07
(PID.TID 0000.0001) %MON trcstat_ptracer63_sd         =   1.1388296499284E-06
(PID.TID 0000.0001) %MON trcstat_ptracer63_del2       =   0.0000000000000E+00
(PID.TID 0000.0001) %MON trcstat_ptracer64_max        =   7.2849549268350E-06
(PID.TID 0000.0001) %MON trcstat_ptracer64_min        =   1.6411352426133E-38
(PID.TID 0000.0001) %MON trcstat_ptracer64_mean       =   2.1721929438949E-07
(PID.TID 0000.0001) %MON trcstat_ptracer64_sd         =   1.1388296549328E-06
(PID.TID 0000.0001) %MON trcstat_ptracer64_del2       =   0.0000000000000E+00
(PID.TID 0000.0001) %MON trcstat_ptracer65_max        =   7.3205860961335E-06
(PID.TID 0000.0001) %MON trcstat_ptracer65_min        =   1.6411352426133E-38
(PID.TID 0000.0001) %MON trcstat_ptracer65_mean       =   2.1858678075088E-07
(PID.TID 0000.0001) %MON trcstat_ptracer65_sd         =   1.1452030601433E-06
(PID.TID 0000.0001) %MON trcstat_ptracer65_del2       =   0.0000000000000E+00
(PID.TID 0000.0001) %MON trcstat_ptracer66_max        =   7.2849557459524E-06
(PID.TID 0000.0001) %MON trcstat_ptracer66_min        =   1.6411352426133E-38
(PID.TID 0000.0001) %MON trcstat_ptracer66_mean       =   2.1767168645688E-07
(PID.TID 0000.0001) %MON trcstat_ptracer66_sd         =   1.1406586291952E-06
(PID.TID 0000.0001) %MON trcstat_ptracer66_del2       =   0.0000000000000E+00
(PID.TID 0000.0001) %MON trcstat_ptracer67_max        =   7.2849549268325E-06
(PID.TID 0000.0001) %MON trcstat_ptracer67_min        =   1.6411352426133E-38
(PID.TID 0000.0001) %MON trcstat_ptracer67_mean       =   2.1721929438940E-07
(PID.TID 0000.0001) %MON trcstat_ptracer67_sd         =   1.1388296549324E-06
(PID.TID 0000.0001) %MON trcstat_ptracer67_del2       =   0.0000000000000E+00
(PID.TID 0000.0001) %MON trcstat_ptracer68_max        =   7.4473703596638E-06
(PID.TID 0000.0001) %MON trcstat_ptracer68_min        =   6.9529747233172E-34
(PID.TID 0000.0001) %MON trcstat_ptracer68_mean       =   2.2182890996688E-07
(PID.TID 0000.0001) %MON trcstat_ptracer68_sd         =   1.1632936521697E-06
(PID.TID 0000.0001) %MON trcstat_ptracer68_del2       =   0.0000000000000E+00
(PID.TID 0000.0001) %MON trcstat_ptracer69_max        =   7.2849549268329E-06
(PID.TID 0000.0001) %MON trcstat_ptracer69_min        =   1.6411352426133E-38
(PID.TID 0000.0001) %MON trcstat_ptracer69_mean       =   2.1721933409695E-07
(PID.TID 0000.0001) %MON trcstat_ptracer69_sd         =   1.1388296501079E-06
(PID.TID 0000.0001) %MON trcstat_ptracer69_del2       =   0.0000000000000E+00
(PID.TID 0000.0001) %MON trcstat_ptracer70_max        =   7.4041553087527E-06
(PID.TID 0000.0001) %MON trcstat_ptracer70_min        =   6.9529747233172E-34
(PID.TID 0000.0001) %MON trcstat_ptracer70_mean       =   2.2061822027868E-07
(PID.TID 0000.0001) %MON trcstat_ptracer70_sd         =   1.1567336168589E-06
(PID.TID 0000.0001) %MON trcstat_ptracer70_del2       =   0.0000000000000E+00
(PID.TID 0000.0001) %MON trcstat_ptracer71_max        =   7.2849549268328E-06
(PID.TID 0000.0001) %MON trcstat_ptracer71_min        =   1.6411352426133E-38
(PID.TID 0000.0001) %MON trcstat_ptracer71_mean       =   2.1723944399289E-07
(PID.TID 0000.0001) %MON trcstat_ptracer71_sd         =   1.1388517277602E-06
(PID.TID 0000.0001) %MON trcstat_ptracer71_del2       =   0.0000000000000E+00
(PID.TID 0000.0001) %MON trcstat_ptracer72_max        =   7.2849549268331E-06
(PID.TID 0000.0001) %MON trcstat_ptracer72_min        =   1.6411352426133E-38
(PID.TID 0000.0001) %MON trcstat_ptracer72_mean       =   2.1722001567868E-07
(PID.TID 0000.0001) %MON trcstat_ptracer72_sd         =   1.1388295739789E-06
(PID.TID 0000.0001) %MON trcstat_ptracer72_del2       =   0.0000000000000E+00
(PID.TID 0000.0001) %MON trcstat_ptracer73_max        =   7.4392257453297E-06
(PID.TID 0000.0001) %MON trcstat_ptracer73_min        =   6.9529747233172E-34
(PID.TID 0000.0001) %MON trcstat_ptracer73_mean       =   2.2145776722688E-07
(PID.TID 0000.0001) %MON trcstat_ptracer73_sd         =   1.1618071591904E-06
(PID.TID 0000.0001) %MON trcstat_ptracer73_del2       =   0.0000000000000E+00
(PID.TID 0000.0001) %MON trcstat_ptracer74_max        =   7.3767308471164E-06
(PID.TID 0000.0001) %MON trcstat_ptracer74_min        =   1.6411352426133E-38
(PID.TID 0000.0001) %MON trcstat_ptracer74_mean       =   2.1946240003238E-07
(PID.TID 0000.0001) %MON trcstat_ptracer74_sd         =   1.1518514667041E-06
(PID.TID 0000.0001) %MON trcstat_ptracer74_del2       =   0.0000000000000E+00
(PID.TID 0000.0001) %MON trcstat_ptracer75_max        =   7.2849549268357E-06
(PID.TID 0000.0001) %MON trcstat_ptracer75_min        =   1.6411352426133E-38
(PID.TID 0000.0001) %MON trcstat_ptracer75_mean       =   2.1721942333027E-07
(PID.TID 0000.0001) %MON trcstat_ptracer75_sd         =   1.1388296310156E-06
(PID.TID 0000.0001) %MON trcstat_ptracer75_del2       =   0.0000000000000E+00
(PID.TID 0000.0001) %MON trcstat_ptracer76_max        =   7.2846474369348E-06
(PID.TID 0000.0001) %MON trcstat_ptracer76_min        =   6.9529747233172E-34
(PID.TID 0000.0001) %MON trcstat_ptracer76_mean       =   2.1721929438930E-07
(PID.TID 0000.0001) %MON trcstat_ptracer76_sd         =   1.1385393840085E-06
(PID.TID 0000.0001) %MON trcstat_ptracer76_del2       =   0.0000000000000E+00
(PID.TID 0000.0001) %MON trcstat_ptracer77_max        =   7.4433290147756E-06
(PID.TID 0000.0001) %MON trcstat_ptracer77_min        =   6.9529747233172E-34
(PID.TID 0000.0001) %MON trcstat_ptracer77_mean       =   2.2170164413261E-07
(PID.TID 0000.0001) %MON trcstat_ptracer77_sd         =   1.1626584984052E-06
(PID.TID 0000.0001) %MON trcstat_ptracer77_del2       =   0.0000000000000E+00
(PID.TID 0000.0001) %MON trcstat_ptracer78_max        =   7.2849549268332E-06
(PID.TID 0000.0001) %MON trcstat_ptracer78_min        =   1.6411352426133E-38
(PID.TID 0000.0001) %MON trcstat_ptracer78_mean       =   2.1721929438943E-07
(PID.TID 0000.0001) %MON trcstat_ptracer78_sd         =   1.1388296549325E-06
(PID.TID 0000.0001) %MON trcstat_ptracer78_del2       =   0.0000000000000E+00
(PID.TID 0000.0001) %MON trcstat_ptracer79_max        =   7.2849549268330E-06
(PID.TID 0000.0001) %MON trcstat_ptracer79_min        =   1.6411352426133E-38
(PID.TID 0000.0001) %MON trcstat_ptracer79_mean       =   2.1721929438942E-07
(PID.TID 0000.0001) %MON trcstat_ptracer79_sd         =   1.1388296549325E-06
(PID.TID 0000.0001) %MON trcstat_ptracer79_del2       =   0.0000000000000E+00
(PID.TID 0000.0001) %MON trcstat_ptracer80_max        =   7.4161370823196E-06
(PID.TID 0000.0001) %MON trcstat_ptracer80_min        =   6.9529747233172E-34
(PID.TID 0000.0001) %MON trcstat_ptracer80_mean       =   2.2097789262869E-07
(PID.TID 0000.0001) %MON trcstat_ptracer80_sd         =   1.1585879774610E-06
(PID.TID 0000.0001) %MON trcstat_ptracer80_del2       =   0.0000000000000E+00
(PID.TID 0000.0001) %MON trcstat_ptracer81_max        =   7.3601334143107E-06
(PID.TID 0000.0001) %MON trcstat_ptracer81_min        =   1.6411352426133E-38
(PID.TID 0000.0001) %MON trcstat_ptracer81_mean       =   2.1935280967453E-07
(PID.TID 0000.0001) %MON trcstat_ptracer81_sd         =   1.1506931150607E-06
(PID.TID 0000.0001) %MON trcstat_ptracer81_del2       =   0.0000000000000E+00
(PID.TID 0000.0001) %MON trcstat_ptracer82_max        =   7.2849549268323E-06
(PID.TID 0000.0001) %MON trcstat_ptracer82_min        =   1.6411352426133E-38
(PID.TID 0000.0001) %MON trcstat_ptracer82_mean       =   2.1722045783642E-07
(PID.TID 0000.0001) %MON trcstat_ptracer82_sd         =   1.1388306104070E-06
(PID.TID 0000.0001) %MON trcstat_ptracer82_del2       =   0.0000000000000E+00
(PID.TID 0000.0001) %MON trcstat_ptracer83_max        =   7.4128173730214E-06
(PID.TID 0000.0001) %MON trcstat_ptracer83_min        =   6.9529747233172E-34
(PID.TID 0000.0001) %MON trcstat_ptracer83_mean       =   2.2071670551236E-07
(PID.TID 0000.0001) %MON trcstat_ptracer83_sd         =   1.1577646189609E-06
(PID.TID 0000.0001) %MON trcstat_ptracer83_del2       =   0.0000000000000E+00
(PID.TID 0000.0001) %MON trcstat_ptracer84_max        =   7.3781463601148E-06
(PID.TID 0000.0001) %MON trcstat_ptracer84_min        =   1.6411352426133E-38
(PID.TID 0000.0001) %MON trcstat_ptracer84_mean       =   2.1973924673466E-07
(PID.TID 0000.0001) %MON trcstat_ptracer84_sd         =   1.1530656718522E-06
(PID.TID 0000.0001) %MON trcstat_ptracer84_del2       =   0.0000000000000E+00
(PID.TID 0000.0001) %MON trcstat_ptracer85_max        =   7.2849549268331E-06
(PID.TID 0000.0001) %MON trcstat_ptracer85_min        =   1.6411352426133E-38
(PID.TID 0000.0001) %MON trcstat_ptracer85_mean       =   2.1734083455190E-07
(PID.TID 0000.0001) %MON trcstat_ptracer85_sd         =   1.1391734576357E-06
(PID.TID 0000.0001) %MON trcstat_ptracer85_del2       =   0.0000000000000E+00
(PID.TID 0000.0001) %MON trcstat_ptracer86_max        =   7.2849549268348E-06
(PID.TID 0000.0001) %MON trcstat_ptracer86_min        =   1.6411352426133E-38
(PID.TID 0000.0001) %MON trcstat_ptracer86_mean       =   2.1721929438948E-07
(PID.TID 0000.0001) %MON trcstat_ptracer86_sd         =   1.1388296549327E-06
(PID.TID 0000.0001) %MON trcstat_ptracer86_del2       =   0.0000000000000E+00
(PID.TID 0000.0001) %MON trcstat_ptracer87_max        =   7.2846474380647E-06
(PID.TID 0000.0001) %MON trcstat_ptracer87_min        =   6.9529747233172E-34
(PID.TID 0000.0001) %MON trcstat_ptracer87_mean       =   2.1721929442087E-07
(PID.TID 0000.0001) %MON trcstat_ptracer87_sd         =   1.1385393841785E-06
(PID.TID 0000.0001) %MON trcstat_ptracer87_del2       =   0.0000000000000E+00
(PID.TID 0000.0001) %MON trcstat_ptracer88_max        =   7.2849549268325E-06
(PID.TID 0000.0001) %MON trcstat_ptracer88_min        =   1.6411352426133E-38
(PID.TID 0000.0001) %MON trcstat_ptracer88_mean       =   2.1721930848936E-07
(PID.TID 0000.0001) %MON trcstat_ptracer88_sd         =   1.1388296526271E-06
(PID.TID 0000.0001) %MON trcstat_ptracer88_del2       =   0.0000000000000E+00
(PID.TID 0000.0001) %MON trcstat_ptracer89_max        =   7.3890377526119E-06
(PID.TID 0000.0001) %MON trcstat_ptracer89_min        =   1.6411352426133E-38
(PID.TID 0000.0001) %MON trcstat_ptracer89_mean       =   2.2033306074672E-07
(PID.TID 0000.0001) %MON trcstat_ptracer89_sd         =   1.1557545537644E-06
(PID.TID 0000.0001) %MON trcstat_ptracer89_del2       =   0.0000000000000E+00
(PID.TID 0000.0001) %MON trcstat_ptracer90_max        =   7.2849549268336E-06
(PID.TID 0000.0001) %MON trcstat_ptracer90_min        =   1.6411352426133E-38
(PID.TID 0000.0001) %MON trcstat_ptracer90_mean       =   2.1721929438944E-07
(PID.TID 0000.0001) %MON trcstat_ptracer90_sd         =   1.1388296549325E-06
(PID.TID 0000.0001) %MON trcstat_ptracer90_del2       =   0.0000000000000E+00
(PID.TID 0000.0001) %MON trcstat_ptracer91_max        =   7.3634698050433E-06
(PID.TID 0000.0001) %MON trcstat_ptracer91_min        =   1.6411352426133E-38
(PID.TID 0000.0001) %MON trcstat_ptracer91_mean       =   2.1908454021753E-07
(PID.TID 0000.0001) %MON trcstat_ptracer91_sd         =   1.1498762936776E-06
(PID.TID 0000.0001) %MON trcstat_ptracer91_del2       =   0.0000000000000E+00
(PID.TID 0000.0001) %MON trcstat_ptracer92_max        =   7.2849549268349E-06
(PID.TID 0000.0001) %MON trcstat_ptracer92_min        =   1.6411352426133E-38
(PID.TID 0000.0001) %MON trcstat_ptracer92_mean       =   2.1723380361695E-07
(PID.TID 0000.0001) %MON trcstat_ptracer92_sd         =   1.1388281401536E-06
(PID.TID 0000.0001) %MON trcstat_ptracer92_del2       =   0.0000000000000E+00
(PID.TID 0000.0001) %MON trcstat_ptracer93_max        =   7.3868414051605E-06
(PID.TID 0000.0001) %MON trcstat_ptracer93_min        =   1.6411352426133E-38
(PID.TID 0000.0001) %MON trcstat_ptracer93_mean       =   2.2009285152398E-07
(PID.TID 0000.0001) %MON trcstat_ptracer93_sd         =   1.1549791334529E-06
(PID.TID 0000.0001) %MON trcstat_ptracer93_del2       =   0.0000000000000E+00
(PID.TID 0000.0001) %MON trcstat_ptracer94_max        =   7.2849549268341E-06
(PID.TID 0000.0001) %MON trcstat_ptracer94_min        =   1.6411352426133E-38
(PID.TID 0000.0001) %MON trcstat_ptracer94_mean       =   2.1721929438946E-07
(PID.TID 0000.0001) %MON trcstat_ptracer94_sd         =   1.1388296549326E-06
(PID.TID 0000.0001) %MON trcstat_ptracer94_del2       =   0.0000000000000E+00
(PID.TID 0000.0001) %MON trcstat_ptracer95_max        =   7.2849549268333E-06
(PID.TID 0000.0001) %MON trcstat_ptracer95_min        =   1.6411352426133E-38
(PID.TID 0000.0001) %MON trcstat_ptracer95_mean       =   2.1723596712405E-07
(PID.TID 0000.0001) %MON trcstat_ptracer95_sd         =   1.1388434833525E-06
(PID.TID 0000.0001) %MON trcstat_ptracer95_del2       =   0.0000000000000E+00
(PID.TID 0000.0001) %MON trcstat_ptracer96_max        =   7.2849549268325E-06
(PID.TID 0000.0001) %MON trcstat_ptracer96_min        =   1.6411352426133E-38
(PID.TID 0000.0001) %MON trcstat_ptracer96_mean       =   2.1721964527947E-07
(PID.TID 0000.0001) %MON trcstat_ptracer96_sd         =   1.1388296115637E-06
(PID.TID 0000.0001) %MON trcstat_ptracer96_del2       =   0.0000000000000E+00
(PID.TID 0000.0001) %MON trcstat_ptracer97_max        =   7.2849549268329E-06
(PID.TID 0000.0001) %MON trcstat_ptracer97_min        =   1.6411352426133E-38
(PID.TID 0000.0001) %MON trcstat_ptracer97_mean       =   2.1722005923702E-07
(PID.TID 0000.0001) %MON trcstat_ptracer97_sd         =   1.1388295716380E-06
(PID.TID 0000.0001) %MON trcstat_ptracer97_del2       =   0.0000000000000E+00
(PID.TID 0000.0001) %MON trcstat_ptracer98_max        =   7.2849549268326E-06
(PID.TID 0000.0001) %MON trcstat_ptracer98_min        =   1.6411352426133E-38
(PID.TID 0000.0001) %MON trcstat_ptracer98_mean       =   2.1721929438941E-07
(PID.TID 0000.0001) %MON trcstat_ptracer98_sd         =   1.1388296549324E-06
(PID.TID 0000.0001) %MON trcstat_ptracer98_del2       =   0.0000000000000E+00
(PID.TID 0000.0001) %MON trcstat_ptracer99_max        =   7.3975955755971E-06
(PID.TID 0000.0001) %MON trcstat_ptracer99_min        =   6.9529747233172E-34
(PID.TID 0000.0001) %MON trcstat_ptracer99_mean       =   2.2050723940435E-07
(PID.TID 0000.0001) %MON trcstat_ptracer99_sd         =   1.1557641957043E-06
(PID.TID 0000.0001) %MON trcstat_ptracer99_del2       =   0.0000000000000E+00
(PID.TID 0000.0001) // =======================================================
(PID.TID 0000.0001) // End MONITOR ptracers field statistics
(PID.TID 0000.0001) // =======================================================
time,SST,SSS,fu,fv,Q,E-P,i0,i1,a,b =   7.2000E+03  2.5680E+01  0.0000E+00  0.0000E+00  0.0000E+00  0.0000E+00  0.0000E+00    12     1  5.0278E-01  4.9722E-01
time,fu0,fu1,fu =   7.2000E+03  0.0000E+00  0.0000E+00  0.0000E+00  5.027777777777778E-01  4.972222222222222E-01
(PID.TID 0000.0001) // =======================================================
(PID.TID 0000.0001) // Begin MONITOR dynamic field statistics
(PID.TID 0000.0001) // =======================================================
(PID.TID 0000.0001) %MON time_tsnumber                =                     3
(PID.TID 0000.0001) %MON time_secondsf                =   1.0800000000000E+04
(PID.TID 0000.0001) %MON dynstat_eta_max              =   0.0000000000000E+00
(PID.TID 0000.0001) %MON dynstat_eta_min              =   0.0000000000000E+00
(PID.TID 0000.0001) %MON dynstat_eta_mean             =   0.0000000000000E+00
(PID.TID 0000.0001) %MON dynstat_eta_sd               =   0.0000000000000E+00
(PID.TID 0000.0001) %MON dynstat_eta_del2             =   0.0000000000000E+00
(PID.TID 0000.0001) %MON dynstat_uvel_max             =   0.0000000000000E+00
(PID.TID 0000.0001) %MON dynstat_uvel_min             =   0.0000000000000E+00
(PID.TID 0000.0001) %MON dynstat_uvel_mean            =   0.0000000000000E+00
(PID.TID 0000.0001) %MON dynstat_uvel_sd              =   0.0000000000000E+00
(PID.TID 0000.0001) %MON dynstat_uvel_del2            =   0.0000000000000E+00
(PID.TID 0000.0001) %MON dynstat_vvel_max             =   0.0000000000000E+00
(PID.TID 0000.0001) %MON dynstat_vvel_min             =   0.0000000000000E+00
(PID.TID 0000.0001) %MON dynstat_vvel_mean            =   0.0000000000000E+00
(PID.TID 0000.0001) %MON dynstat_vvel_sd              =   0.0000000000000E+00
(PID.TID 0000.0001) %MON dynstat_vvel_del2            =   0.0000000000000E+00
(PID.TID 0000.0001) %MON dynstat_wvel_max             =   0.0000000000000E+00
(PID.TID 0000.0001) %MON dynstat_wvel_min             =   0.0000000000000E+00
(PID.TID 0000.0001) %MON dynstat_wvel_mean            =   0.0000000000000E+00
(PID.TID 0000.0001) %MON dynstat_wvel_sd              =   0.0000000000000E+00
(PID.TID 0000.0001) %MON dynstat_wvel_del2            =   0.0000000000000E+00
(PID.TID 0000.0001) %MON dynstat_theta_max            =   2.6316641728912E+01
(PID.TID 0000.0001) %MON dynstat_theta_min            =   2.6737007672781E+00
(PID.TID 0000.0001) %MON dynstat_theta_mean           =   5.4735157557642E+00
(PID.TID 0000.0001) %MON dynstat_theta_sd             =   5.1968480490481E+00
(PID.TID 0000.0001) %MON dynstat_theta_del2           =   0.0000000000000E+00
(PID.TID 0000.0001) %MON dynstat_salt_max             =   3.5000000000000E+01
(PID.TID 0000.0001) %MON dynstat_salt_min             =   3.5000000000000E+01
(PID.TID 0000.0001) %MON dynstat_salt_mean            =   3.5000000000000E+01
(PID.TID 0000.0001) %MON dynstat_salt_sd              =   7.1054273576010E-15
(PID.TID 0000.0001) %MON dynstat_salt_del2            =   0.0000000000000E+00
(PID.TID 0000.0001) %MON dynstat_sst_max              =   2.6316641728912E+01
(PID.TID 0000.0001) %MON dynstat_sst_min              =   2.6316641728912E+01
(PID.TID 0000.0001) %MON dynstat_sst_mean             =   2.6316641728912E+01
(PID.TID 0000.0001) %MON dynstat_sst_sd               =   0.0000000000000E+00
(PID.TID 0000.0001) %MON dynstat_sst_del2             =   0.0000000000000E+00
(PID.TID 0000.0001) %MON dynstat_sss_max              =   3.5000000000000E+01
(PID.TID 0000.0001) %MON dynstat_sss_min              =   3.5000000000000E+01
(PID.TID 0000.0001) %MON dynstat_sss_mean             =   3.5000000000000E+01
(PID.TID 0000.0001) %MON dynstat_sss_sd               =   0.0000000000000E+00
(PID.TID 0000.0001) %MON dynstat_sss_del2             =   0.0000000000000E+00
(PID.TID 0000.0001) %MON extforcing_qnet_max          =   0.0000000000000E+00
(PID.TID 0000.0001) %MON extforcing_qnet_min          =   0.0000000000000E+00
(PID.TID 0000.0001) %MON extforcing_qnet_mean         =   0.0000000000000E+00
(PID.TID 0000.0001) %MON extforcing_qnet_sd           =   0.0000000000000E+00
(PID.TID 0000.0001) %MON extforcing_qnet_del2         =   0.0000000000000E+00
(PID.TID 0000.0001) %MON extforcing_qsw_max           =   0.0000000000000E+00
(PID.TID 0000.0001) %MON extforcing_qsw_min           =   0.0000000000000E+00
(PID.TID 0000.0001) %MON extforcing_qsw_mean          =   0.0000000000000E+00
(PID.TID 0000.0001) %MON extforcing_qsw_sd            =   0.0000000000000E+00
(PID.TID 0000.0001) %MON extforcing_qsw_del2          =   0.0000000000000E+00
(PID.TID 0000.0001) %MON extforcing_empmr_max         =   0.0000000000000E+00
(PID.TID 0000.0001) %MON extforcing_empmr_min         =   0.0000000000000E+00
(PID.TID 0000.0001) %MON extforcing_empmr_mean        =   0.0000000000000E+00
(PID.TID 0000.0001) %MON extforcing_empmr_sd          =   0.0000000000000E+00
(PID.TID 0000.0001) %MON extforcing_empmr_del2        =   0.0000000000000E+00
(PID.TID 0000.0001) %MON extforcing_fu_max            =   0.0000000000000E+00
(PID.TID 0000.0001) %MON extforcing_fu_min            =   0.0000000000000E+00
(PID.TID 0000.0001) %MON extforcing_fu_mean           =   0.0000000000000E+00
(PID.TID 0000.0001) %MON extforcing_fu_sd             =   0.0000000000000E+00
(PID.TID 0000.0001) %MON extforcing_fu_del2           =   0.0000000000000E+00
(PID.TID 0000.0001) %MON extforcing_fv_max            =   0.0000000000000E+00
(PID.TID 0000.0001) %MON extforcing_fv_min            =   0.0000000000000E+00
(PID.TID 0000.0001) %MON extforcing_fv_mean           =   0.0000000000000E+00
(PID.TID 0000.0001) %MON extforcing_fv_sd             =   0.0000000000000E+00
(PID.TID 0000.0001) %MON extforcing_fv_del2           =   0.0000000000000E+00
(PID.TID 0000.0001) %MON advcfl_uvel_max              =   0.0000000000000E+00
(PID.TID 0000.0001) %MON advcfl_vvel_max              =   0.0000000000000E+00
(PID.TID 0000.0001) %MON advcfl_wvel_max              =   0.0000000000000E+00
(PID.TID 0000.0001) %MON advcfl_W_hf_max              =   0.0000000000000E+00
(PID.TID 0000.0001) %MON pe_b_mean                    =   0.0000000000000E+00
(PID.TID 0000.0001) %MON ke_max                       =   0.0000000000000E+00
(PID.TID 0000.0001) %MON ke_mean                      =   0.0000000000000E+00
(PID.TID 0000.0001) %MON ke_vol                       =   4.1199767883485E+13
(PID.TID 0000.0001) %MON vort_r_min                   =   0.0000000000000E+00
(PID.TID 0000.0001) %MON vort_r_max                   =   0.0000000000000E+00
(PID.TID 0000.0001) %MON vort_a_mean                  =  -4.5067801836625E-05
(PID.TID 0000.0001) %MON vort_a_sd                    =  -4.1359030627651E-25
(PID.TID 0000.0001) %MON vort_p_mean                  =  -4.5067801836625E-05
(PID.TID 0000.0001) %MON vort_p_sd                    =   0.0000000000000E+00
(PID.TID 0000.0001) %MON surfExpan_theta_mean         =   0.0000000000000E+00
(PID.TID 0000.0001) %MON surfExpan_salt_mean          =   0.0000000000000E+00
(PID.TID 0000.0001) // =======================================================
(PID.TID 0000.0001) // End MONITOR dynamic field statistics
(PID.TID 0000.0001) // =======================================================
(PID.TID 0000.0001) // =======================================================
(PID.TID 0000.0001) // Begin MONITOR ptracer field statistics
(PID.TID 0000.0001) // =======================================================
(PID.TID 0000.0001) %MON trcstat_ptracer01_max        =   2.2436997399334E+00
(PID.TID 0000.0001) %MON trcstat_ptracer01_min        =   2.1025515169720E-01
(PID.TID 0000.0001) %MON trcstat_ptracer01_mean       =   1.5821340846667E+00
(PID.TID 0000.0001) %MON trcstat_ptracer01_sd         =   4.6734970449330E-01
(PID.TID 0000.0001) %MON trcstat_ptracer01_del2       =   0.0000000000000E+00
(PID.TID 0000.0001) %MON trcstat_ptracer02_max        =   3.3903494635840E+01
(PID.TID 0000.0001) %MON trcstat_ptracer02_min        =   4.6438753317125E-02
(PID.TID 0000.0001) %MON trcstat_ptracer02_mean       =   2.3502391638495E+01
(PID.TID 0000.0001) %MON trcstat_ptracer02_sd         =   7.8161964212523E+00
(PID.TID 0000.0001) %MON trcstat_ptracer02_del2       =   0.0000000000000E+00
(PID.TID 0000.0001) %MON trcstat_ptracer03_max        =   1.3003903716236E-03
(PID.TID 0000.0001) %MON trcstat_ptracer03_min        =   1.2999561756367E-03
(PID.TID 0000.0001) %MON trcstat_ptracer03_mean       =   1.2999577479199E-03
(PID.TID 0000.0001) %MON trcstat_ptracer03_sd         =   2.3185067488213E-08
(PID.TID 0000.0001) %MON trcstat_ptracer03_del2       =   0.0000000000000E+00
(PID.TID 0000.0001) %MON trcstat_ptracer04_max        =   3.9387400882396E+01
(PID.TID 0000.0001) %MON trcstat_ptracer04_min        =   1.2247956083758E+00
(PID.TID 0000.0001) %MON trcstat_ptracer04_mean       =   2.9621890445333E+01
(PID.TID 0000.0001) %MON trcstat_ptracer04_sd         =   1.1270583587971E+01
(PID.TID 0000.0001) %MON trcstat_ptracer04_del2       =   0.0000000000000E+00
(PID.TID 0000.0001) %MON trcstat_ptracer05_max        =   5.1121594167280E-03
(PID.TID 0000.0001) %MON trcstat_ptracer05_min        =   2.7014962789410E-34
(PID.TID 0000.0001) %MON trcstat_ptracer05_mean       =   2.1462350281530E-04
(PID.TID 0000.0001) %MON trcstat_ptracer05_sd         =   9.2403808256936E-04
(PID.TID 0000.0001) %MON trcstat_ptracer05_del2       =   0.0000000000000E+00
(PID.TID 0000.0001) %MON trcstat_ptracer06_max        =   8.1794550667648E-02
(PID.TID 0000.0001) %MON trcstat_ptracer06_min        =   4.3223940463056E-33
(PID.TID 0000.0001) %MON trcstat_ptracer06_mean       =   3.4339760450448E-03
(PID.TID 0000.0001) %MON trcstat_ptracer06_sd         =   1.4784609321110E-02
(PID.TID 0000.0001) %MON trcstat_ptracer06_del2       =   0.0000000000000E+00
(PID.TID 0000.0001) %MON trcstat_ptracer07_max        =   5.1121590579109E-06
(PID.TID 0000.0001) %MON trcstat_ptracer07_min        =   2.7014922196865E-37
(PID.TID 0000.0001) %MON trcstat_ptracer07_mean       =   2.1462350312142E-07
(PID.TID 0000.0001) %MON trcstat_ptracer07_sd         =   9.2403808222754E-07
(PID.TID 0000.0001) %MON trcstat_ptracer07_del2       =   0.0000000000000E+00
(PID.TID 0000.0001) %MON trcstat_ptracer08_max        =   1.0318998751990E-09
(PID.TID 0000.0001) %MON trcstat_ptracer08_min        =   3.4526288373231E-36
(PID.TID 0000.0001) %MON trcstat_ptracer08_mean       =   1.3645394821833E-10
(PID.TID 0000.0001) %MON trcstat_ptracer08_sd         =   2.4958650057404E-10
(PID.TID 0000.0001) %MON trcstat_ptracer08_del2       =   0.0000000000000E+00
(PID.TID 0000.0001) %MON trcstat_ptracer09_max        =   1.6510398003185E-08
(PID.TID 0000.0001) %MON trcstat_ptracer09_min        =   5.5242061397169E-35
(PID.TID 0000.0001) %MON trcstat_ptracer09_mean       =   2.1832631714932E-09
(PID.TID 0000.0001) %MON trcstat_ptracer09_sd         =   3.9933840091847E-09
(PID.TID 0000.0001) %MON trcstat_ptracer09_del2       =   0.0000000000000E+00
(PID.TID 0000.0001) %MON trcstat_ptracer10_max        =   1.0318998397917E-12
(PID.TID 0000.0001) %MON trcstat_ptracer10_min        =   3.4526285894478E-39
(PID.TID 0000.0001) %MON trcstat_ptracer10_mean       =   1.3645393921231E-13
(PID.TID 0000.0001) %MON trcstat_ptracer10_sd         =   2.4958648633970E-13
(PID.TID 0000.0001) %MON trcstat_ptracer10_del2       =   0.0000000000000E+00
(PID.TID 0000.0001) %MON trcstat_ptracer11_max        =   4.2366800404807E-09
(PID.TID 0000.0001) %MON trcstat_ptracer11_min        =   2.0339945261569E-35
(PID.TID 0000.0001) %MON trcstat_ptracer11_mean       =   5.1356735114196E-10
(PID.TID 0000.0001) %MON trcstat_ptracer11_sd         =   1.0335550359761E-09
(PID.TID 0000.0001) %MON trcstat_ptracer11_del2       =   0.0000000000000E+00
(PID.TID 0000.0001) %MON trcstat_ptracer12_max        =   1.0318272099611E-09
(PID.TID 0000.0001) %MON trcstat_ptracer12_min        =   3.4526288373119E-36
(PID.TID 0000.0001) %MON trcstat_ptracer12_mean       =   1.3645188289663E-10
(PID.TID 0000.0001) %MON trcstat_ptracer12_sd         =   2.4957957525091E-10
(PID.TID 0000.0001) %MON trcstat_ptracer12_del2       =   0.0000000000000E+00
(PID.TID 0000.0001) %MON trcstat_ptracer13_max        =   1.6509235359377E-08
(PID.TID 0000.0001) %MON trcstat_ptracer13_min        =   5.5242061396991E-35
(PID.TID 0000.0001) %MON trcstat_ptracer13_mean       =   2.1832301263460E-09
(PID.TID 0000.0001) %MON trcstat_ptracer13_sd         =   3.9932732040146E-09
(PID.TID 0000.0001) %MON trcstat_ptracer13_del2       =   0.0000000000000E+00
(PID.TID 0000.0001) %MON trcstat_ptracer14_max        =   1.0318271745537E-12
(PID.TID 0000.0001) %MON trcstat_ptracer14_min        =   3.4526285894367E-39
(PID.TID 0000.0001) %MON trcstat_ptracer14_mean       =   1.3645187389061E-13
(PID.TID 0000.0001) %MON trcstat_ptracer14_sd         =   2.4957956101616E-13
(PID.TID 0000.0001) %MON trcstat_ptracer14_del2       =   0.0000000000000E+00
(PID.TID 0000.0001) %MON trcstat_ptracer15_max        =   4.2366800406506E-09
(PID.TID 0000.0001) %MON trcstat_ptracer15_min        =   2.0339945261567E-35
(PID.TID 0000.0001) %MON trcstat_ptracer15_mean       =   5.1357551330167E-10
(PID.TID 0000.0001) %MON trcstat_ptracer15_sd         =   1.0335509813874E-09
(PID.TID 0000.0001) %MON trcstat_ptracer15_del2       =   0.0000000000000E+00
(PID.TID 0000.0001) %MON trcstat_ptracer16_max        =   2.7176109620491E-04
(PID.TID 0000.0001) %MON trcstat_ptracer16_min        =   1.1758700017279E-06
(PID.TID 0000.0001) %MON trcstat_ptracer16_mean       =   7.8791239895246E-05
(PID.TID 0000.0001) %MON trcstat_ptracer16_sd         =   9.6404134387667E-05
(PID.TID 0000.0001) %MON trcstat_ptracer16_del2       =   0.0000000000000E+00
(PID.TID 0000.0001) %MON trcstat_ptracer17_max        =   4.3481775392785E-03
(PID.TID 0000.0001) %MON trcstat_ptracer17_min        =   1.8813920027646E-05
(PID.TID 0000.0001) %MON trcstat_ptracer17_mean       =   1.2606598383239E-03
(PID.TID 0000.0001) %MON trcstat_ptracer17_sd         =   1.5424661502027E-03
(PID.TID 0000.0001) %MON trcstat_ptracer17_del2       =   0.0000000000000E+00
(PID.TID 0000.0001) %MON trcstat_ptracer18_max        =   2.7176111210358E-07
(PID.TID 0000.0001) %MON trcstat_ptracer18_min        =   1.1758698733136E-09
(PID.TID 0000.0001) %MON trcstat_ptracer18_mean       =   7.8791240420550E-08
(PID.TID 0000.0001) %MON trcstat_ptracer18_sd         =   9.6404136442426E-08
(PID.TID 0000.0001) %MON trcstat_ptracer18_del2       =   0.0000000000000E+00
(PID.TID 0000.0001) %MON trcstat_ptracer19_max        =   1.6242578554936E-02
(PID.TID 0000.0001) %MON trcstat_ptracer19_min        =   1.1396871723566E-03
(PID.TID 0000.0001) %MON trcstat_ptracer19_mean       =   5.4877065314782E-03
(PID.TID 0000.0001) %MON trcstat_ptracer19_sd         =   5.1683072625296E-03
(PID.TID 0000.0001) %MON trcstat_ptracer19_del2       =   0.0000000000000E+00
(PID.TID 0000.0001) %MON trcstat_ptracer20_max        =   2.5639502773502E-02
(PID.TID 0000.0001) %MON trcstat_ptracer20_min        =   1.8767602871184E-07
(PID.TID 0000.0001) %MON trcstat_ptracer20_mean       =   6.0727445782761E-04
(PID.TID 0000.0001) %MON trcstat_ptracer20_sd         =   3.2543741968525E-03
(PID.TID 0000.0001) %MON trcstat_ptracer20_del2       =   0.0000000000000E+00
(PID.TID 0000.0001) %MON trcstat_ptracer21_max        =   1.8248913230488E-02
(PID.TID 0000.0001) %MON trcstat_ptracer21_min        =   3.8780993188188E-06
(PID.TID 0000.0001) %MON trcstat_ptracer21_mean       =   6.0458809447063E-04
(PID.TID 0000.0001) %MON trcstat_ptracer21_sd         =   1.9422973405280E-03
(PID.TID 0000.0001) %MON trcstat_ptracer21_del2       =   0.0000000000000E+00
(PID.TID 0000.0001) %MON trcstat_ptracer22_max        =   7.2540871846779E-06
(PID.TID 0000.0001) %MON trcstat_ptracer22_min        =   1.6970042425561E-31
(PID.TID 0000.0001) %MON trcstat_ptracer22_mean       =   2.1651922919245E-07
(PID.TID 0000.0001) %MON trcstat_ptracer22_sd         =   1.1338584284276E-06
(PID.TID 0000.0001) %MON trcstat_ptracer22_del2       =   0.0000000000000E+00
(PID.TID 0000.0001) %MON trcstat_ptracer23_max        =   7.3694904141593E-06
(PID.TID 0000.0001) %MON trcstat_ptracer23_min        =   4.9152451728124E-38
(PID.TID 0000.0001) %MON trcstat_ptracer23_mean       =   2.1950064159961E-07
(PID.TID 0000.0001) %MON trcstat_ptracer23_sd         =   1.1521179755817E-06
(PID.TID 0000.0001) %MON trcstat_ptracer23_del2       =   0.0000000000000E+00
(PID.TID 0000.0001) %MON trcstat_ptracer24_max        =   7.2540871846787E-06
(PID.TID 0000.0001) %MON trcstat_ptracer24_min        =   1.6970042425561E-31
(PID.TID 0000.0001) %MON trcstat_ptracer24_mean       =   2.1631421399101E-07
(PID.TID 0000.0001) %MON trcstat_ptracer24_sd         =   1.1336459350320E-06
(PID.TID 0000.0001) %MON trcstat_ptracer24_del2       =   0.0000000000000E+00
(PID.TID 0000.0001) %MON trcstat_ptracer25_max        =   7.4444323084437E-06
(PID.TID 0000.0001) %MON trcstat_ptracer25_min        =   1.6970042425561E-31
(PID.TID 0000.0001) %MON trcstat_ptracer25_mean       =   2.2194329111943E-07
(PID.TID 0000.0001) %MON trcstat_ptracer25_sd         =   1.1628610061179E-06
(PID.TID 0000.0001) %MON trcstat_ptracer25_del2       =   0.0000000000000E+00
(PID.TID 0000.0001) %MON trcstat_ptracer26_max        =   7.4346408090571E-06
(PID.TID 0000.0001) %MON trcstat_ptracer26_min        =   4.9152451728124E-38
(PID.TID 0000.0001) %MON trcstat_ptracer26_mean       =   2.2121976970814E-07
(PID.TID 0000.0001) %MON trcstat_ptracer26_sd         =   1.1612036776247E-06
(PID.TID 0000.0001) %MON trcstat_ptracer26_del2       =   0.0000000000000E+00
(PID.TID 0000.0001) %MON trcstat_ptracer27_max        =   7.2545461146835E-06
(PID.TID 0000.0001) %MON trcstat_ptracer27_min        =   4.9152451728124E-38
(PID.TID 0000.0001) %MON trcstat_ptracer27_mean       =   2.1631422555952E-07
(PID.TID 0000.0001) %MON trcstat_ptracer27_sd         =   1.1340787571954E-06
(PID.TID 0000.0001) %MON trcstat_ptracer27_del2       =   0.0000000000000E+00
(PID.TID 0000.0001) %MON trcstat_ptracer28_max        =   7.3515459439245E-06
(PID.TID 0000.0001) %MON trcstat_ptracer28_min        =   4.9152451728124E-38
(PID.TID 0000.0001) %MON trcstat_ptracer28_mean       =   2.1901421613826E-07
(PID.TID 0000.0001) %MON trcstat_ptracer28_sd         =   1.1491825217633E-06
(PID.TID 0000.0001) %MON trcstat_ptracer28_del2       =   0.0000000000000E+00
(PID.TID 0000.0001) %MON trcstat_ptracer29_max        =   7.2545461146818E-06
(PID.TID 0000.0001) %MON trcstat_ptracer29_min        =   4.9152451728124E-38
(PID.TID 0000.0001) %MON trcstat_ptracer29_mean       =   2.1642813505416E-07
(PID.TID 0000.0001) %MON trcstat_ptracer29_sd         =   1.1345087408508E-06
(PID.TID 0000.0001) %MON trcstat_ptracer29_del2       =   0.0000000000000E+00
(PID.TID 0000.0001) %MON trcstat_ptracer30_max        =   7.2902060605835E-06
(PID.TID 0000.0001) %MON trcstat_ptracer30_min        =   4.9152451728124E-38
(PID.TID 0000.0001) %MON trcstat_ptracer30_mean       =   2.1804503808651E-07
(PID.TID 0000.0001) %MON trcstat_ptracer30_sd         =   1.1417912542405E-06
(PID.TID 0000.0001) %MON trcstat_ptracer30_del2       =   0.0000000000000E+00
(PID.TID 0000.0001) %MON trcstat_ptracer31_max        =   7.4686518694772E-06
(PID.TID 0000.0001) %MON trcstat_ptracer31_min        =   4.9152451728124E-38
(PID.TID 0000.0001) %MON trcstat_ptracer31_mean       =   2.2224360185858E-07
(PID.TID 0000.0001) %MON trcstat_ptracer31_sd         =   1.1666669534877E-06
(PID.TID 0000.0001) %MON trcstat_ptracer31_del2       =   0.0000000000000E+00
(PID.TID 0000.0001) %MON trcstat_ptracer32_max        =   7.2545461146863E-06
(PID.TID 0000.0001) %MON trcstat_ptracer32_min        =   4.9152451728124E-38
(PID.TID 0000.0001) %MON trcstat_ptracer32_mean       =   2.1631421394410E-07
(PID.TID 0000.0001) %MON trcstat_ptracer32_sd         =   1.1340787591811E-06
(PID.TID 0000.0001) %MON trcstat_ptracer32_del2       =   0.0000000000000E+00
(PID.TID 0000.0001) %MON trcstat_ptracer33_max        =   7.2545461146815E-06
(PID.TID 0000.0001) %MON trcstat_ptracer33_min        =   4.9152451728124E-38
(PID.TID 0000.0001) %MON trcstat_ptracer33_mean       =   2.1631421394395E-07
(PID.TID 0000.0001) %MON trcstat_ptracer33_sd         =   1.1340787591804E-06
(PID.TID 0000.0001) %MON trcstat_ptracer33_del2       =   0.0000000000000E+00
(PID.TID 0000.0001) %MON trcstat_ptracer34_max        =   7.3604363396596E-06
(PID.TID 0000.0001) %MON trcstat_ptracer34_min        =   4.9152451728124E-38
(PID.TID 0000.0001) %MON trcstat_ptracer34_mean       =   2.1890649935315E-07
(PID.TID 0000.0001) %MON trcstat_ptracer34_sd         =   1.1492580293872E-06
(PID.TID 0000.0001) %MON trcstat_ptracer34_del2       =   0.0000000000000E+00
(PID.TID 0000.0001) %MON trcstat_ptracer35_max        =   7.2540871829896E-06
(PID.TID 0000.0001) %MON trcstat_ptracer35_min        =   1.6970042425561E-31
(PID.TID 0000.0001) %MON trcstat_ptracer35_mean       =   2.1631421394381E-07
(PID.TID 0000.0001) %MON trcstat_ptracer35_sd         =   1.1336459347779E-06
(PID.TID 0000.0001) %MON trcstat_ptracer35_del2       =   0.0000000000000E+00
(PID.TID 0000.0001) %MON trcstat_ptracer36_max        =   7.4859233972735E-06
(PID.TID 0000.0001) %MON trcstat_ptracer36_min        =   4.9152451728124E-38
(PID.TID 0000.0001) %MON trcstat_ptracer36_mean       =   2.2270034287624E-07
(PID.TID 0000.0001) %MON trcstat_ptracer36_sd         =   1.1693244900948E-06
(PID.TID 0000.0001) %MON trcstat_ptracer36_del2       =   0.0000000000000E+00
(PID.TID 0000.0001) %MON trcstat_ptracer37_max        =   7.2545479402188E-06
(PID.TID 0000.0001) %MON trcstat_ptracer37_min        =   4.9152451728124E-38
(PID.TID 0000.0001) %MON trcstat_ptracer37_mean       =   2.1695622757735E-07
(PID.TID 0000.0001) %MON trcstat_ptracer37_sd         =   1.1366335139773E-06
(PID.TID 0000.0001) %MON trcstat_ptracer37_del2       =   0.0000000000000E+00
(PID.TID 0000.0001) %MON trcstat_ptracer38_max        =   7.4031219431411E-06
(PID.TID 0000.0001) %MON trcstat_ptracer38_min        =   4.9152451728124E-38
(PID.TID 0000.0001) %MON trcstat_ptracer38_mean       =   2.2022101270388E-07
(PID.TID 0000.0001) %MON trcstat_ptracer38_sd         =   1.1563682276269E-06
(PID.TID 0000.0001) %MON trcstat_ptracer38_del2       =   0.0000000000000E+00
(PID.TID 0000.0001) %MON trcstat_ptracer39_max        =   7.3834723081436E-06
(PID.TID 0000.0001) %MON trcstat_ptracer39_min        =   1.6970042425561E-31
(PID.TID 0000.0001) %MON trcstat_ptracer39_mean       =   2.2018596009879E-07
(PID.TID 0000.0001) %MON trcstat_ptracer39_sd         =   1.1535418287047E-06
(PID.TID 0000.0001) %MON trcstat_ptracer39_del2       =   0.0000000000000E+00
(PID.TID 0000.0001) %MON trcstat_ptracer40_max        =   7.2540871846775E-06
(PID.TID 0000.0001) %MON trcstat_ptracer40_min        =   1.6970042425561E-31
(PID.TID 0000.0001) %MON trcstat_ptracer40_mean       =   2.1631421399098E-07
(PID.TID 0000.0001) %MON trcstat_ptracer40_sd         =   1.1336459350318E-06
(PID.TID 0000.0001) %MON trcstat_ptracer40_del2       =   0.0000000000000E+00
(PID.TID 0000.0001) %MON trcstat_ptracer41_max        =   7.2545461146821E-06
(PID.TID 0000.0001) %MON trcstat_ptracer41_min        =   4.9152451728124E-38
(PID.TID 0000.0001) %MON trcstat_ptracer41_mean       =   2.1631530588365E-07
(PID.TID 0000.0001) %MON trcstat_ptracer41_sd         =   1.1340786408146E-06
(PID.TID 0000.0001) %MON trcstat_ptracer41_del2       =   0.0000000000000E+00
(PID.TID 0000.0001) %MON trcstat_ptracer42_max        =   7.2545461146829E-06
(PID.TID 0000.0001) %MON trcstat_ptracer42_min        =   4.9152451728124E-38
(PID.TID 0000.0001) %MON trcstat_ptracer42_mean       =   2.1631421394399E-07
(PID.TID 0000.0001) %MON trcstat_ptracer42_sd         =   1.1340787591806E-06
(PID.TID 0000.0001) %MON trcstat_ptracer42_del2       =   0.0000000000000E+00
(PID.TID 0000.0001) %MON trcstat_ptracer43_max        =   7.2545461146830E-06
(PID.TID 0000.0001) %MON trcstat_ptracer43_min        =   4.9152451728124E-38
(PID.TID 0000.0001) %MON trcstat_ptracer43_mean       =   2.1631423009645E-07
(PID.TID 0000.0001) %MON trcstat_ptracer43_sd         =   1.1340787564890E-06
(PID.TID 0000.0001) %MON trcstat_ptracer43_del2       =   0.0000000000000E+00
(PID.TID 0000.0001) %MON trcstat_ptracer44_max        =   7.3737961575625E-06
(PID.TID 0000.0001) %MON trcstat_ptracer44_min        =   4.9152451728124E-38
(PID.TID 0000.0001) %MON trcstat_ptracer44_mean       =   2.1951381546387E-07
(PID.TID 0000.0001) %MON trcstat_ptracer44_sd         =   1.1523452400862E-06
(PID.TID 0000.0001) %MON trcstat_ptracer44_del2       =   0.0000000000000E+00
(PID.TID 0000.0001) %MON trcstat_ptracer45_max        =   7.2545461146833E-06
(PID.TID 0000.0001) %MON trcstat_ptracer45_min        =   4.9152451728124E-38
(PID.TID 0000.0001) %MON trcstat_ptracer45_mean       =   2.1631425975539E-07
(PID.TID 0000.0001) %MON trcstat_ptracer45_sd         =   1.1340787517916E-06
(PID.TID 0000.0001) %MON trcstat_ptracer45_del2       =   0.0000000000000E+00
(PID.TID 0000.0001) %MON trcstat_ptracer46_max        =   7.4976183171899E-06
(PID.TID 0000.0001) %MON trcstat_ptracer46_min        =   1.6970042425561E-31
(PID.TID 0000.0001) %MON trcstat_ptracer46_mean       =   2.2314029678147E-07
(PID.TID 0000.0001) %MON trcstat_ptracer46_sd         =   1.1707277536775E-06
(PID.TID 0000.0001) %MON trcstat_ptracer46_del2       =   0.0000000000000E+00
(PID.TID 0000.0001) %MON trcstat_ptracer47_max        =   7.3768862915598E-06
(PID.TID 0000.0001) %MON trcstat_ptracer47_min        =   4.9152451728124E-38
(PID.TID 0000.0001) %MON trcstat_ptracer47_mean       =   2.1975991495631E-07
(PID.TID 0000.0001) %MON trcstat_ptracer47_sd         =   1.1534596120805E-06
(PID.TID 0000.0001) %MON trcstat_ptracer47_del2       =   0.0000000000000E+00
(PID.TID 0000.0001) %MON trcstat_ptracer48_max        =   7.2540871846768E-06
(PID.TID 0000.0001) %MON trcstat_ptracer48_min        =   1.6970042425561E-31
(PID.TID 0000.0001) %MON trcstat_ptracer48_mean       =   2.1644984877917E-07
(PID.TID 0000.0001) %MON trcstat_ptracer48_sd         =   1.1337097956538E-06
(PID.TID 0000.0001) %MON trcstat_ptracer48_del2       =   0.0000000000000E+00
(PID.TID 0000.0001) %MON trcstat_ptracer49_max        =   7.2545461146819E-06
(PID.TID 0000.0001) %MON trcstat_ptracer49_min        =   4.9152451728124E-38
(PID.TID 0000.0001) %MON trcstat_ptracer49_mean       =   2.1631421394397E-07
(PID.TID 0000.0001) %MON trcstat_ptracer49_sd         =   1.1340787591805E-06
(PID.TID 0000.0001) %MON trcstat_ptracer49_del2       =   0.0000000000000E+00
(PID.TID 0000.0001) %MON trcstat_ptracer50_max        =   7.2545461146828E-06
(PID.TID 0000.0001) %MON trcstat_ptracer50_min        =   4.9152451728124E-38
(PID.TID 0000.0001) %MON trcstat_ptracer50_mean       =   2.1631422073146E-07
(PID.TID 0000.0001) %MON trcstat_ptracer50_sd         =   1.1340787581205E-06
(PID.TID 0000.0001) %MON trcstat_ptracer50_del2       =   0.0000000000000E+00
(PID.TID 0000.0001) %MON trcstat_ptracer51_max        =   7.2545461146827E-06
(PID.TID 0000.0001) %MON trcstat_ptracer51_min        =   4.9152451728124E-38
(PID.TID 0000.0001) %MON trcstat_ptracer51_mean       =   2.1631436038279E-07
(PID.TID 0000.0001) %MON trcstat_ptracer51_sd         =   1.1340787443796E-06
(PID.TID 0000.0001) %MON trcstat_ptracer51_del2       =   0.0000000000000E+00
(PID.TID 0000.0001) %MON trcstat_ptracer52_max        =   7.2545461146821E-06
(PID.TID 0000.0001) %MON trcstat_ptracer52_min        =   4.9152451728124E-38
(PID.TID 0000.0001) %MON trcstat_ptracer52_mean       =   2.1631421394398E-07
(PID.TID 0000.0001) %MON trcstat_ptracer52_sd         =   1.1340787591805E-06
(PID.TID 0000.0001) %MON trcstat_ptracer52_del2       =   0.0000000000000E+00
(PID.TID 0000.0001) %MON trcstat_ptracer53_max        =   7.2545461146864E-06
(PID.TID 0000.0001) %MON trcstat_ptracer53_min        =   4.9152451728124E-38
(PID.TID 0000.0001) %MON trcstat_ptracer53_mean       =   2.1676800100369E-07
(PID.TID 0000.0001) %MON trcstat_ptracer53_sd         =   1.1351935673635E-06
(PID.TID 0000.0001) %MON trcstat_ptracer53_del2       =   0.0000000000000E+00
(PID.TID 0000.0001) %MON trcstat_ptracer54_max        =   7.2545461146815E-06
(PID.TID 0000.0001) %MON trcstat_ptracer54_min        =   4.9152451728124E-38
(PID.TID 0000.0001) %MON trcstat_ptracer54_mean       =   2.1631421509849E-07
(PID.TID 0000.0001) %MON trcstat_ptracer54_sd         =   1.1340787589891E-06
(PID.TID 0000.0001) %MON trcstat_ptracer54_del2       =   0.0000000000000E+00
(PID.TID 0000.0001) %MON trcstat_ptracer55_max        =   7.2545461146852E-06
(PID.TID 0000.0001) %MON trcstat_ptracer55_min        =   4.9152451728124E-38
(PID.TID 0000.0001) %MON trcstat_ptracer55_mean       =   2.1631421396152E-07
(PID.TID 0000.0001) %MON trcstat_ptracer55_sd         =   1.1340787591776E-06
(PID.TID 0000.0001) %MON trcstat_ptracer55_del2       =   0.0000000000000E+00
(PID.TID 0000.0001) %MON trcstat_ptracer56_max        =   7.2545461146834E-06
(PID.TID 0000.0001) %MON trcstat_ptracer56_min        =   4.9152451728124E-38
(PID.TID 0000.0001) %MON trcstat_ptracer56_mean       =   2.1631446983845E-07
(PID.TID 0000.0001) %MON trcstat_ptracer56_sd         =   1.1340787229662E-06
(PID.TID 0000.0001) %MON trcstat_ptracer56_del2       =   0.0000000000000E+00
(PID.TID 0000.0001) %MON trcstat_ptracer57_max        =   7.2545461146824E-06
(PID.TID 0000.0001) %MON trcstat_ptracer57_min        =   4.9152451728124E-38
(PID.TID 0000.0001) %MON trcstat_ptracer57_mean       =   2.1631421394399E-07
(PID.TID 0000.0001) %MON trcstat_ptracer57_sd         =   1.1340787591806E-06
(PID.TID 0000.0001) %MON trcstat_ptracer57_del2       =   0.0000000000000E+00
(PID.TID 0000.0001) %MON trcstat_ptracer58_max        =   7.2545461146814E-06
(PID.TID 0000.0001) %MON trcstat_ptracer58_min        =   4.9152451728124E-38
(PID.TID 0000.0001) %MON trcstat_ptracer58_mean       =   2.1631421568300E-07
(PID.TID 0000.0001) %MON trcstat_ptracer58_sd         =   1.1340787588968E-06
(PID.TID 0000.0001) %MON trcstat_ptracer58_del2       =   0.0000000000000E+00
(PID.TID 0000.0001) %MON trcstat_ptracer59_max        =   7.2545461146875E-06
(PID.TID 0000.0001) %MON trcstat_ptracer59_min        =   4.9152451728124E-38
(PID.TID 0000.0001) %MON trcstat_ptracer59_mean       =   2.1631421394413E-07
(PID.TID 0000.0001) %MON trcstat_ptracer59_sd         =   1.1340787591813E-06
(PID.TID 0000.0001) %MON trcstat_ptracer59_del2       =   0.0000000000000E+00
(PID.TID 0000.0001) %MON trcstat_ptracer60_max        =   7.2545461146849E-06
(PID.TID 0000.0001) %MON trcstat_ptracer60_min        =   4.9152451728124E-38
(PID.TID 0000.0001) %MON trcstat_ptracer60_mean       =   2.1631426331488E-07
(PID.TID 0000.0001) %MON trcstat_ptracer60_sd         =   1.1340787500228E-06
(PID.TID 0000.0001) %MON trcstat_ptracer60_del2       =   0.0000000000000E+00
(PID.TID 0000.0001) %MON trcstat_ptracer61_max        =   7.2545461146847E-06
(PID.TID 0000.0001) %MON trcstat_ptracer61_min        =   4.9152451728124E-38
(PID.TID 0000.0001) %MON trcstat_ptracer61_mean       =   2.1631421394405E-07
(PID.TID 0000.0001) %MON trcstat_ptracer61_sd         =   1.1340787591809E-06
(PID.TID 0000.0001) %MON trcstat_ptracer61_del2       =   0.0000000000000E+00
(PID.TID 0000.0001) %MON trcstat_ptracer62_max        =   7.3942737110475E-06
(PID.TID 0000.0001) %MON trcstat_ptracer62_min        =   4.9152451728124E-38
(PID.TID 0000.0001) %MON trcstat_ptracer62_mean       =   2.2024598117059E-07
(PID.TID 0000.0001) %MON trcstat_ptracer62_sd         =   1.1560660685249E-06
(PID.TID 0000.0001) %MON trcstat_ptracer62_del2       =   0.0000000000000E+00
(PID.TID 0000.0001) %MON trcstat_ptracer63_max        =   7.2545461146835E-06
(PID.TID 0000.0001) %MON trcstat_ptracer63_min        =   4.9152451728124E-38
(PID.TID 0000.0001) %MON trcstat_ptracer63_mean       =   2.1631426035479E-07
(PID.TID 0000.0001) %MON trcstat_ptracer63_sd         =   1.1340787516948E-06
(PID.TID 0000.0001) %MON trcstat_ptracer63_del2       =   0.0000000000000E+00
(PID.TID 0000.0001) %MON trcstat_ptracer64_max        =   7.2545461146857E-06
(PID.TID 0000.0001) %MON trcstat_ptracer64_min        =   4.9152451728124E-38
(PID.TID 0000.0001) %MON trcstat_ptracer64_mean       =   2.1631421394408E-07
(PID.TID 0000.0001) %MON trcstat_ptracer64_sd         =   1.1340787591810E-06
(PID.TID 0000.0001) %MON trcstat_ptracer64_del2       =   0.0000000000000E+00
(PID.TID 0000.0001) %MON trcstat_ptracer65_max        =   7.3078474151955E-06
(PID.TID 0000.0001) %MON trcstat_ptracer65_min        =   4.9152451728124E-38
(PID.TID 0000.0001) %MON trcstat_ptracer65_mean       =   2.1836198377810E-07
(PID.TID 0000.0001) %MON trcstat_ptracer65_sd         =   1.1436268773015E-06
(PID.TID 0000.0001) %MON trcstat_ptracer65_del2       =   0.0000000000000E+00
(PID.TID 0000.0001) %MON trcstat_ptracer66_max        =   7.2545485632969E-06
(PID.TID 0000.0001) %MON trcstat_ptracer66_min        =   4.9152451728124E-38
(PID.TID 0000.0001) %MON trcstat_ptracer66_mean       =   2.1699112870766E-07
(PID.TID 0000.0001) %MON trcstat_ptracer66_sd         =   1.1368174920221E-06
(PID.TID 0000.0001) %MON trcstat_ptracer66_del2       =   0.0000000000000E+00
(PID.TID 0000.0001) %MON trcstat_ptracer67_max        =   7.2545461146819E-06
(PID.TID 0000.0001) %MON trcstat_ptracer67_min        =   4.9152451728124E-38
(PID.TID 0000.0001) %MON trcstat_ptracer67_mean       =   2.1631421394396E-07
(PID.TID 0000.0001) %MON trcstat_ptracer67_sd         =   1.1340787591805E-06
(PID.TID 0000.0001) %MON trcstat_ptracer67_del2       =   0.0000000000000E+00
(PID.TID 0000.0001) %MON trcstat_ptracer68_max        =   7.4985383621425E-06
(PID.TID 0000.0001) %MON trcstat_ptracer68_min        =   1.6970042425561E-31
(PID.TID 0000.0001) %MON trcstat_ptracer68_mean       =   2.2323750823468E-07
(PID.TID 0000.0001) %MON trcstat_ptracer68_sd         =   1.1708251945482E-06
(PID.TID 0000.0001) %MON trcstat_ptracer68_del2       =   0.0000000000000E+00
(PID.TID 0000.0001) %MON trcstat_ptracer69_max        =   7.2545461146824E-06
(PID.TID 0000.0001) %MON trcstat_ptracer69_min        =   4.9152451728124E-38
(PID.TID 0000.0001) %MON trcstat_ptracer69_mean       =   2.1631427511078E-07
(PID.TID 0000.0001) %MON trcstat_ptracer69_sd         =   1.1340787517554E-06
(PID.TID 0000.0001) %MON trcstat_ptracer69_del2       =   0.0000000000000E+00
(PID.TID 0000.0001) %MON trcstat_ptracer70_max        =   7.4333556191206E-06
(PID.TID 0000.0001) %MON trcstat_ptracer70_min        =   1.6970042425561E-31
(PID.TID 0000.0001) %MON trcstat_ptracer70_mean       =   2.2141201491545E-07
(PID.TID 0000.0001) %MON trcstat_ptracer70_sd         =   1.1609329187991E-06
(PID.TID 0000.0001) %MON trcstat_ptracer70_del2       =   0.0000000000000E+00
(PID.TID 0000.0001) %MON trcstat_ptracer71_max        =   7.2545461146824E-06
(PID.TID 0000.0001) %MON trcstat_ptracer71_min        =   4.9152451728124E-38
(PID.TID 0000.0001) %MON trcstat_ptracer71_mean       =   2.1634436425545E-07
(PID.TID 0000.0001) %MON trcstat_ptracer71_sd         =   1.1341117811640E-06
(PID.TID 0000.0001) %MON trcstat_ptracer71_del2       =   0.0000000000000E+00
(PID.TID 0000.0001) %MON trcstat_ptracer72_max        =   7.2545461146828E-06
(PID.TID 0000.0001) %MON trcstat_ptracer72_min        =   4.9152451728124E-38
(PID.TID 0000.0001) %MON trcstat_ptracer72_mean       =   2.1631529425735E-07
(PID.TID 0000.0001) %MON trcstat_ptracer72_sd         =   1.1340786379683E-06
(PID.TID 0000.0001) %MON trcstat_ptracer72_del2       =   0.0000000000000E+00
(PID.TID 0000.0001) %MON trcstat_ptracer73_max        =   7.4862430380392E-06
(PID.TID 0000.0001) %MON trcstat_ptracer73_min        =   1.6970042425561E-31
(PID.TID 0000.0001) %MON trcstat_ptracer73_mean       =   2.2267769018037E-07
(PID.TID 0000.0001) %MON trcstat_ptracer73_sd         =   1.1685826967460E-06
(PID.TID 0000.0001) %MON trcstat_ptracer73_del2       =   0.0000000000000E+00
(PID.TID 0000.0001) %MON trcstat_ptracer74_max        =   7.3920810343321E-06
(PID.TID 0000.0001) %MON trcstat_ptracer74_min        =   4.9152451728124E-38
(PID.TID 0000.0001) %MON trcstat_ptracer74_mean       =   2.1967516614572E-07
(PID.TID 0000.0001) %MON trcstat_ptracer74_sd         =   1.1535961476762E-06
(PID.TID 0000.0001) %MON trcstat_ptracer74_del2       =   0.0000000000000E+00
(PID.TID 0000.0001) %MON trcstat_ptracer75_max        =   7.2545461146867E-06
(PID.TID 0000.0001) %MON trcstat_ptracer75_min        =   4.9152451728124E-38
(PID.TID 0000.0001) %MON trcstat_ptracer75_mean       =   2.1631440672161E-07
(PID.TID 0000.0001) %MON trcstat_ptracer75_sd         =   1.1340787234243E-06
(PID.TID 0000.0001) %MON trcstat_ptracer75_del2       =   0.0000000000000E+00
(PID.TID 0000.0001) %MON trcstat_ptracer76_max        =   7.2540871829895E-06
(PID.TID 0000.0001) %MON trcstat_ptracer76_min        =   1.6970042425561E-31
(PID.TID 0000.0001) %MON trcstat_ptracer76_mean       =   2.1631421394381E-07
(PID.TID 0000.0001) %MON trcstat_ptracer76_sd         =   1.1336459347779E-06
(PID.TID 0000.0001) %MON trcstat_ptracer76_del2       =   0.0000000000000E+00
(PID.TID 0000.0001) %MON trcstat_ptracer77_max        =   7.4924342471895E-06
(PID.TID 0000.0001) %MON trcstat_ptracer77_min        =   1.6970042425561E-31
(PID.TID 0000.0001) %MON trcstat_ptracer77_mean       =   2.2304534563454E-07
(PID.TID 0000.0001) %MON trcstat_ptracer77_sd         =   1.1698661706408E-06
(PID.TID 0000.0001) %MON trcstat_ptracer77_del2       =   0.0000000000000E+00
(PID.TID 0000.0001) %MON trcstat_ptracer78_max        =   7.2545461146829E-06
(PID.TID 0000.0001) %MON trcstat_ptracer78_min        =   4.9152451728124E-38
(PID.TID 0000.0001) %MON trcstat_ptracer78_mean       =   2.1631421394400E-07
(PID.TID 0000.0001) %MON trcstat_ptracer78_sd         =   1.1340787591806E-06
(PID.TID 0000.0001) %MON trcstat_ptracer78_del2       =   0.0000000000000E+00
(PID.TID 0000.0001) %MON trcstat_ptracer79_max        =   7.2545461146827E-06
(PID.TID 0000.0001) %MON trcstat_ptracer79_min        =   4.9152451728124E-38
(PID.TID 0000.0001) %MON trcstat_ptracer79_mean       =   2.1631421394399E-07
(PID.TID 0000.0001) %MON trcstat_ptracer79_sd         =   1.1340787591806E-06
(PID.TID 0000.0001) %MON trcstat_ptracer79_del2       =   0.0000000000000E+00
(PID.TID 0000.0001) %MON trcstat_ptracer80_max        =   7.4514098114332E-06
(PID.TID 0000.0001) %MON trcstat_ptracer80_min        =   1.6970042425561E-31
(PID.TID 0000.0001) %MON trcstat_ptracer80_mean       =   2.2195387972483E-07
(PID.TID 0000.0001) %MON trcstat_ptracer80_sd         =   1.1637263562062E-06
(PID.TID 0000.0001) %MON trcstat_ptracer80_del2       =   0.0000000000000E+00
(PID.TID 0000.0001) %MON trcstat_ptracer81_max        =   7.3671861729439E-06
(PID.TID 0000.0001) %MON trcstat_ptracer81_min        =   4.9152451728124E-38
(PID.TID 0000.0001) %MON trcstat_ptracer81_mean       =   2.1951063467656E-07
(PID.TID 0000.0001) %MON trcstat_ptracer81_sd         =   1.1518539143916E-06
(PID.TID 0000.0001) %MON trcstat_ptracer81_del2       =   0.0000000000000E+00
(PID.TID 0000.0001) %MON trcstat_ptracer82_max        =   7.2545461146816E-06
(PID.TID 0000.0001) %MON trcstat_ptracer82_min        =   4.9152451728124E-38
(PID.TID 0000.0001) %MON trcstat_ptracer82_mean       =   2.1631597989887E-07
(PID.TID 0000.0001) %MON trcstat_ptracer82_sd         =   1.1340802021259E-06
(PID.TID 0000.0001) %MON trcstat_ptracer82_del2       =   0.0000000000000E+00
(PID.TID 0000.0001) %MON trcstat_ptracer83_max        =   7.4464093005109E-06
(PID.TID 0000.0001) %MON trcstat_ptracer83_min        =   1.6970042425561E-31
(PID.TID 0000.0001) %MON trcstat_ptracer83_mean       =   2.2156057230623E-07
(PID.TID 0000.0001) %MON trcstat_ptracer83_sd         =   1.1624868842162E-06
(PID.TID 0000.0001) %MON trcstat_ptracer83_del2       =   0.0000000000000E+00
(PID.TID 0000.0001) %MON trcstat_ptracer84_max        =   7.3942610148185E-06
(PID.TID 0000.0001) %MON trcstat_ptracer84_min        =   4.9152451728124E-38
(PID.TID 0000.0001) %MON trcstat_ptracer84_mean       =   2.2009168607957E-07
(PID.TID 0000.0001) %MON trcstat_ptracer84_sd         =   1.1554216874548E-06
(PID.TID 0000.0001) %MON trcstat_ptracer84_del2       =   0.0000000000000E+00
(PID.TID 0000.0001) %MON trcstat_ptracer85_max        =   7.2545461146828E-06
(PID.TID 0000.0001) %MON trcstat_ptracer85_min        =   4.9152451728124E-38
(PID.TID 0000.0001) %MON trcstat_ptracer85_mean       =   2.1649597602658E-07
(PID.TID 0000.0001) %MON trcstat_ptracer85_sd         =   1.1345929258221E-06
(PID.TID 0000.0001) %MON trcstat_ptracer85_del2       =   0.0000000000000E+00
(PID.TID 0000.0001) %MON trcstat_ptracer86_max        =   7.2545461146852E-06
(PID.TID 0000.0001) %MON trcstat_ptracer86_min        =   4.9152451728124E-38
(PID.TID 0000.0001) %MON trcstat_ptracer86_mean       =   2.1631421394407E-07
(PID.TID 0000.0001) %MON trcstat_ptracer86_sd         =   1.1340787591810E-06
(PID.TID 0000.0001) %MON trcstat_ptracer86_del2       =   0.0000000000000E+00
(PID.TID 0000.0001) %MON trcstat_ptracer87_max        =   7.2540871846761E-06
(PID.TID 0000.0001) %MON trcstat_ptracer87_min        =   1.6970042425561E-31
(PID.TID 0000.0001) %MON trcstat_ptracer87_mean       =   2.1631421399093E-07
(PID.TID 0000.0001) %MON trcstat_ptracer87_sd         =   1.1336459350316E-06
(PID.TID 0000.0001) %MON trcstat_ptracer87_del2       =   0.0000000000000E+00
(PID.TID 0000.0001) %MON trcstat_ptracer88_max        =   7.2545461146819E-06
(PID.TID 0000.0001) %MON trcstat_ptracer88_min        =   4.9152451728124E-38
(PID.TID 0000.0001) %MON trcstat_ptracer88_mean       =   2.1631423503261E-07
(PID.TID 0000.0001) %MON trcstat_ptracer88_sd         =   1.1340787557324E-06
(PID.TID 0000.0001) %MON trcstat_ptracer88_del2       =   0.0000000000000E+00
(PID.TID 0000.0001) %MON trcstat_ptracer89_max        =   7.4106508151580E-06
(PID.TID 0000.0001) %MON trcstat_ptracer89_min        =   4.9152451728124E-38
(PID.TID 0000.0001) %MON trcstat_ptracer89_mean       =   2.2098485434409E-07
(PID.TID 0000.0001) %MON trcstat_ptracer89_sd         =   1.1594674561826E-06
(PID.TID 0000.0001) %MON trcstat_ptracer89_del2       =   0.0000000000000E+00
(PID.TID 0000.0001) %MON trcstat_ptracer90_max        =   7.2545461146835E-06
(PID.TID 0000.0001) %MON trcstat_ptracer90_min        =   4.9152451728124E-38
(PID.TID 0000.0001) %MON trcstat_ptracer90_mean       =   2.1631421394402E-07
(PID.TID 0000.0001) %MON trcstat_ptracer90_sd         =   1.1340787591807E-06
(PID.TID 0000.0001) %MON trcstat_ptracer90_del2       =   0.0000000000000E+00
(PID.TID 0000.0001) %MON trcstat_ptracer91_max        =   7.3721999964104E-06
(PID.TID 0000.0001) %MON trcstat_ptracer91_min        =   4.9152451728124E-38
(PID.TID 0000.0001) %MON trcstat_ptracer91_mean       =   2.1910903675038E-07
(PID.TID 0000.0001) %MON trcstat_ptracer91_sd         =   1.1506370754021E-06
(PID.TID 0000.0001) %MON trcstat_ptracer91_del2       =   0.0000000000000E+00
(PID.TID 0000.0001) %MON trcstat_ptracer92_max        =   7.2545461146855E-06
(PID.TID 0000.0001) %MON trcstat_ptracer92_min        =   4.9152451728124E-38
(PID.TID 0000.0001) %MON trcstat_ptracer92_mean       =   2.1633593329090E-07
(PID.TID 0000.0001) %MON trcstat_ptracer92_sd         =   1.1340764964677E-06
(PID.TID 0000.0001) %MON trcstat_ptracer92_del2       =   0.0000000000000E+00
(PID.TID 0000.0001) %MON trcstat_ptracer93_max        =   7.4073507407712E-06
(PID.TID 0000.0001) %MON trcstat_ptracer93_min        =   4.9152451728124E-38
(PID.TID 0000.0001) %MON trcstat_ptracer93_mean       =   2.2062426147175E-07
(PID.TID 0000.0001) %MON trcstat_ptracer93_sd         =   1.1583025688988E-06
(PID.TID 0000.0001) %MON trcstat_ptracer93_del2       =   0.0000000000000E+00
(PID.TID 0000.0001) %MON trcstat_ptracer94_max        =   7.2545461146843E-06
(PID.TID 0000.0001) %MON trcstat_ptracer94_min        =   4.9152451728124E-38
(PID.TID 0000.0001) %MON trcstat_ptracer94_mean       =   2.1631421394404E-07
(PID.TID 0000.0001) %MON trcstat_ptracer94_sd         =   1.1340787591808E-06
(PID.TID 0000.0001) %MON trcstat_ptracer94_del2       =   0.0000000000000E+00
(PID.TID 0000.0001) %MON trcstat_ptracer95_max        =   7.2545461146831E-06
(PID.TID 0000.0001) %MON trcstat_ptracer95_min        =   4.9152451728124E-38
(PID.TID 0000.0001) %MON trcstat_ptracer95_mean       =   2.1633916636002E-07
(PID.TID 0000.0001) %MON trcstat_ptracer95_sd         =   1.1340994528644E-06
(PID.TID 0000.0001) %MON trcstat_ptracer95_del2       =   0.0000000000000E+00
(PID.TID 0000.0001) %MON trcstat_ptracer96_max        =   7.2545461146818E-06
(PID.TID 0000.0001) %MON trcstat_ptracer96_min        =   4.9152451728124E-38
(PID.TID 0000.0001) %MON trcstat_ptracer96_mean       =   2.1631473933162E-07
(PID.TID 0000.0001) %MON trcstat_ptracer96_sd         =   1.1340786942528E-06
(PID.TID 0000.0001) %MON trcstat_ptracer96_del2       =   0.0000000000000E+00
(PID.TID 0000.0001) %MON trcstat_ptracer97_max        =   7.2545461146825E-06
(PID.TID 0000.0001) %MON trcstat_ptracer97_min        =   4.9152451728124E-38
(PID.TID 0000.0001) %MON trcstat_ptracer97_mean       =   2.1631535955246E-07
(PID.TID 0000.0001) %MON trcstat_ptracer97_sd         =   1.1340786344636E-06
(PID.TID 0000.0001) %MON trcstat_ptracer97_del2       =   0.0000000000000E+00
(PID.TID 0000.0001) %MON trcstat_ptracer98_max        =   7.2545461146821E-06
(PID.TID 0000.0001) %MON trcstat_ptracer98_min        =   4.9152451728124E-38
(PID.TID 0000.0001) %MON trcstat_ptracer98_mean       =   2.1631421394397E-07
(PID.TID 0000.0001) %MON trcstat_ptracer98_sd         =   1.1340787591805E-06
(PID.TID 0000.0001) %MON trcstat_ptracer98_del2       =   0.0000000000000E+00
(PID.TID 0000.0001) %MON trcstat_ptracer99_max        =   7.4234685506080E-06
(PID.TID 0000.0001) %MON trcstat_ptracer99_min        =   1.6970042425561E-31
(PID.TID 0000.0001) %MON trcstat_ptracer99_mean       =   2.2124552607867E-07
(PID.TID 0000.0001) %MON trcstat_ptracer99_sd         =   1.1594783783953E-06
(PID.TID 0000.0001) %MON trcstat_ptracer99_del2       =   0.0000000000000E+00
(PID.TID 0000.0001) // =======================================================
(PID.TID 0000.0001) // End MONITOR ptracers field statistics
(PID.TID 0000.0001) // =======================================================
time,SST,SSS,fu,fv,Q,E-P,i0,i1,a,b =   1.0800E+04  2.5682E+01  0.0000E+00  0.0000E+00  0.0000E+00  0.0000E+00  0.0000E+00    12     1  5.0417E-01  4.9583E-01
time,fu0,fu1,fu =   1.0800E+04  0.0000E+00  0.0000E+00  0.0000E+00  5.041666666666667E-01  4.958333333333333E-01
(PID.TID 0000.0001) // =======================================================
(PID.TID 0000.0001) // Begin MONITOR dynamic field statistics
(PID.TID 0000.0001) // =======================================================
(PID.TID 0000.0001) %MON time_tsnumber                =                     4
(PID.TID 0000.0001) %MON time_secondsf                =   1.4400000000000E+04
(PID.TID 0000.0001) %MON dynstat_eta_max              =   0.0000000000000E+00
(PID.TID 0000.0001) %MON dynstat_eta_min              =   0.0000000000000E+00
(PID.TID 0000.0001) %MON dynstat_eta_mean             =   0.0000000000000E+00
(PID.TID 0000.0001) %MON dynstat_eta_sd               =   0.0000000000000E+00
(PID.TID 0000.0001) %MON dynstat_eta_del2             =   0.0000000000000E+00
(PID.TID 0000.0001) %MON dynstat_uvel_max             =   0.0000000000000E+00
(PID.TID 0000.0001) %MON dynstat_uvel_min             =   0.0000000000000E+00
(PID.TID 0000.0001) %MON dynstat_uvel_mean            =   0.0000000000000E+00
(PID.TID 0000.0001) %MON dynstat_uvel_sd              =   0.0000000000000E+00
(PID.TID 0000.0001) %MON dynstat_uvel_del2            =   0.0000000000000E+00
(PID.TID 0000.0001) %MON dynstat_vvel_max             =   0.0000000000000E+00
(PID.TID 0000.0001) %MON dynstat_vvel_min             =   0.0000000000000E+00
(PID.TID 0000.0001) %MON dynstat_vvel_mean            =   0.0000000000000E+00
(PID.TID 0000.0001) %MON dynstat_vvel_sd              =   0.0000000000000E+00
(PID.TID 0000.0001) %MON dynstat_vvel_del2            =   0.0000000000000E+00
(PID.TID 0000.0001) %MON dynstat_wvel_max             =   0.0000000000000E+00
(PID.TID 0000.0001) %MON dynstat_wvel_min             =   0.0000000000000E+00
(PID.TID 0000.0001) %MON dynstat_wvel_mean            =   0.0000000000000E+00
(PID.TID 0000.0001) %MON dynstat_wvel_sd              =   0.0000000000000E+00
(PID.TID 0000.0001) %MON dynstat_wvel_del2            =   0.0000000000000E+00
(PID.TID 0000.0001) %MON dynstat_theta_max            =   2.6307340345579E+01
(PID.TID 0000.0001) %MON dynstat_theta_min            =   2.6737009916297E+00
(PID.TID 0000.0001) %MON dynstat_theta_mean           =   5.4734908053328E+00
(PID.TID 0000.0001) %MON dynstat_theta_sd             =   5.1967318185908E+00
(PID.TID 0000.0001) %MON dynstat_theta_del2           =   0.0000000000000E+00
(PID.TID 0000.0001) %MON dynstat_salt_max             =   3.5000000000000E+01
(PID.TID 0000.0001) %MON dynstat_salt_min             =   3.5000000000000E+01
(PID.TID 0000.0001) %MON dynstat_salt_mean            =   3.5000000000000E+01
(PID.TID 0000.0001) %MON dynstat_salt_sd              =   7.1054273576010E-15
(PID.TID 0000.0001) %MON dynstat_salt_del2            =   0.0000000000000E+00
(PID.TID 0000.0001) %MON dynstat_sst_max              =   2.6307340345579E+01
(PID.TID 0000.0001) %MON dynstat_sst_min              =   2.6307340345579E+01
(PID.TID 0000.0001) %MON dynstat_sst_mean             =   2.6307340345579E+01
(PID.TID 0000.0001) %MON dynstat_sst_sd               =   0.0000000000000E+00
(PID.TID 0000.0001) %MON dynstat_sst_del2             =   0.0000000000000E+00
(PID.TID 0000.0001) %MON dynstat_sss_max              =   3.5000000000000E+01
(PID.TID 0000.0001) %MON dynstat_sss_min              =   3.5000000000000E+01
(PID.TID 0000.0001) %MON dynstat_sss_mean             =   3.5000000000000E+01
(PID.TID 0000.0001) %MON dynstat_sss_sd               =   0.0000000000000E+00
(PID.TID 0000.0001) %MON dynstat_sss_del2             =   0.0000000000000E+00
(PID.TID 0000.0001) %MON extforcing_qnet_max          =   0.0000000000000E+00
(PID.TID 0000.0001) %MON extforcing_qnet_min          =   0.0000000000000E+00
(PID.TID 0000.0001) %MON extforcing_qnet_mean         =   0.0000000000000E+00
(PID.TID 0000.0001) %MON extforcing_qnet_sd           =   0.0000000000000E+00
(PID.TID 0000.0001) %MON extforcing_qnet_del2         =   0.0000000000000E+00
(PID.TID 0000.0001) %MON extforcing_qsw_max           =   0.0000000000000E+00
(PID.TID 0000.0001) %MON extforcing_qsw_min           =   0.0000000000000E+00
(PID.TID 0000.0001) %MON extforcing_qsw_mean          =   0.0000000000000E+00
(PID.TID 0000.0001) %MON extforcing_qsw_sd            =   0.0000000000000E+00
(PID.TID 0000.0001) %MON extforcing_qsw_del2          =   0.0000000000000E+00
(PID.TID 0000.0001) %MON extforcing_empmr_max         =   0.0000000000000E+00
(PID.TID 0000.0001) %MON extforcing_empmr_min         =   0.0000000000000E+00
(PID.TID 0000.0001) %MON extforcing_empmr_mean        =   0.0000000000000E+00
(PID.TID 0000.0001) %MON extforcing_empmr_sd          =   0.0000000000000E+00
(PID.TID 0000.0001) %MON extforcing_empmr_del2        =   0.0000000000000E+00
(PID.TID 0000.0001) %MON extforcing_fu_max            =   0.0000000000000E+00
(PID.TID 0000.0001) %MON extforcing_fu_min            =   0.0000000000000E+00
(PID.TID 0000.0001) %MON extforcing_fu_mean           =   0.0000000000000E+00
(PID.TID 0000.0001) %MON extforcing_fu_sd             =   0.0000000000000E+00
(PID.TID 0000.0001) %MON extforcing_fu_del2           =   0.0000000000000E+00
(PID.TID 0000.0001) %MON extforcing_fv_max            =   0.0000000000000E+00
(PID.TID 0000.0001) %MON extforcing_fv_min            =   0.0000000000000E+00
(PID.TID 0000.0001) %MON extforcing_fv_mean           =   0.0000000000000E+00
(PID.TID 0000.0001) %MON extforcing_fv_sd             =   0.0000000000000E+00
(PID.TID 0000.0001) %MON extforcing_fv_del2           =   0.0000000000000E+00
(PID.TID 0000.0001) %MON advcfl_uvel_max              =   0.0000000000000E+00
(PID.TID 0000.0001) %MON advcfl_vvel_max              =   0.0000000000000E+00
(PID.TID 0000.0001) %MON advcfl_wvel_max              =   0.0000000000000E+00
(PID.TID 0000.0001) %MON advcfl_W_hf_max              =   0.0000000000000E+00
(PID.TID 0000.0001) %MON pe_b_mean                    =   0.0000000000000E+00
(PID.TID 0000.0001) %MON ke_max                       =   0.0000000000000E+00
(PID.TID 0000.0001) %MON ke_mean                      =   0.0000000000000E+00
(PID.TID 0000.0001) %MON ke_vol                       =   4.1199767883485E+13
(PID.TID 0000.0001) %MON vort_r_min                   =   0.0000000000000E+00
(PID.TID 0000.0001) %MON vort_r_max                   =   0.0000000000000E+00
(PID.TID 0000.0001) %MON vort_a_mean                  =  -4.5067801836625E-05
(PID.TID 0000.0001) %MON vort_a_sd                    =  -4.1359030627651E-25
(PID.TID 0000.0001) %MON vort_p_mean                  =  -4.5067801836625E-05
(PID.TID 0000.0001) %MON vort_p_sd                    =   0.0000000000000E+00
(PID.TID 0000.0001) %MON surfExpan_theta_mean         =   0.0000000000000E+00
(PID.TID 0000.0001) %MON surfExpan_salt_mean          =   0.0000000000000E+00
(PID.TID 0000.0001) // =======================================================
(PID.TID 0000.0001) // End MONITOR dynamic field statistics
(PID.TID 0000.0001) // =======================================================
(PID.TID 0000.0001) // =======================================================
(PID.TID 0000.0001) // Begin MONITOR ptracer field statistics
(PID.TID 0000.0001) // =======================================================
(PID.TID 0000.0001) %MON trcstat_ptracer01_max        =   2.2436996440743E+00
(PID.TID 0000.0001) %MON trcstat_ptracer01_min        =   2.1025685664323E-01
(PID.TID 0000.0001) %MON trcstat_ptracer01_mean       =   1.5821341972899E+00
(PID.TID 0000.0001) %MON trcstat_ptracer01_sd         =   4.6734938828683E-01
(PID.TID 0000.0001) %MON trcstat_ptracer01_del2       =   0.0000000000000E+00
(PID.TID 0000.0001) %MON trcstat_ptracer02_max        =   3.3903492981220E+01
(PID.TID 0000.0001) %MON trcstat_ptracer02_min        =   4.6484924802309E-02
(PID.TID 0000.0001) %MON trcstat_ptracer02_mean       =   2.3502392248301E+01
(PID.TID 0000.0001) %MON trcstat_ptracer02_sd         =   7.8161942155848E+00
(PID.TID 0000.0001) %MON trcstat_ptracer02_del2       =   0.0000000000000E+00
(PID.TID 0000.0001) %MON trcstat_ptracer03_max        =   1.3005203610247E-03
(PID.TID 0000.0001) %MON trcstat_ptracer03_min        =   1.2999415676276E-03
(PID.TID 0000.0001) %MON trcstat_ptracer03_mean       =   1.2999436635019E-03
(PID.TID 0000.0001) %MON trcstat_ptracer03_sd         =   3.0906232298900E-08
(PID.TID 0000.0001) %MON trcstat_ptracer03_del2       =   0.0000000000000E+00
(PID.TID 0000.0001) %MON trcstat_ptracer04_max        =   3.9387400649807E+01
(PID.TID 0000.0001) %MON trcstat_ptracer04_min        =   1.2247940686900E+00
(PID.TID 0000.0001) %MON trcstat_ptracer04_mean       =   2.9621890987633E+01
(PID.TID 0000.0001) %MON trcstat_ptracer04_sd         =   1.1270581935946E+01
(PID.TID 0000.0001) %MON trcstat_ptracer04_del2       =   0.0000000000000E+00
(PID.TID 0000.0001) %MON trcstat_ptracer05_max        =   5.1117262991677E-03
(PID.TID 0000.0001) %MON trcstat_ptracer05_min        =   6.3020803647416E-34
(PID.TID 0000.0001) %MON trcstat_ptracer05_mean       =   2.1458606899877E-04
(PID.TID 0000.0001) %MON trcstat_ptracer05_sd         =   9.2390939343508E-04
(PID.TID 0000.0001) %MON trcstat_ptracer05_del2       =   0.0000000000000E+00
(PID.TID 0000.0001) %MON trcstat_ptracer06_max        =   8.1787620786684E-02
(PID.TID 0000.0001) %MON trcstat_ptracer06_min        =   1.0083328583586E-32
(PID.TID 0000.0001) %MON trcstat_ptracer06_mean       =   3.4333771039803E-03
(PID.TID 0000.0001) %MON trcstat_ptracer06_sd         =   1.4782550294961E-02
(PID.TID 0000.0001) %MON trcstat_ptracer06_del2       =   0.0000000000000E+00
(PID.TID 0000.0001) %MON trcstat_ptracer07_max        =   5.1117259407970E-06
(PID.TID 0000.0001) %MON trcstat_ptracer07_min        =   6.3020708970883E-37
(PID.TID 0000.0001) %MON trcstat_ptracer07_mean       =   2.1458606930476E-07
(PID.TID 0000.0001) %MON trcstat_ptracer07_sd         =   9.2390939309325E-07
(PID.TID 0000.0001) %MON trcstat_ptracer07_del2       =   0.0000000000000E+00
(PID.TID 0000.0001) %MON trcstat_ptracer08_max        =   1.0305130590532E-09
(PID.TID 0000.0001) %MON trcstat_ptracer08_min        =   8.0449423881192E-36
(PID.TID 0000.0001) %MON trcstat_ptracer08_mean       =   1.3626577836781E-10
(PID.TID 0000.0001) %MON trcstat_ptracer08_sd         =   2.4924379347462E-10
(PID.TID 0000.0001) %MON trcstat_ptracer08_del2       =   0.0000000000000E+00
(PID.TID 0000.0001) %MON trcstat_ptracer09_max        =   1.6488208944851E-08
(PID.TID 0000.0001) %MON trcstat_ptracer09_min        =   1.2871907820991E-34
(PID.TID 0000.0001) %MON trcstat_ptracer09_mean       =   2.1802524538849E-09
(PID.TID 0000.0001) %MON trcstat_ptracer09_sd         =   3.9879006955940E-09
(PID.TID 0000.0001) %MON trcstat_ptracer09_del2       =   0.0000000000000E+00
(PID.TID 0000.0001) %MON trcstat_ptracer10_max        =   1.0305130236971E-12
(PID.TID 0000.0001) %MON trcstat_ptracer10_min        =   8.0449418105471E-39
(PID.TID 0000.0001) %MON trcstat_ptracer10_mean       =   1.3626576937430E-13
(PID.TID 0000.0001) %MON trcstat_ptracer10_sd         =   2.4924377926029E-13
(PID.TID 0000.0001) %MON trcstat_ptracer10_del2       =   0.0000000000000E+00
(PID.TID 0000.0001) %MON trcstat_ptracer11_max        =   4.2307901168521E-09
(PID.TID 0000.0001) %MON trcstat_ptracer11_min        =   4.7393941114574E-35
(PID.TID 0000.0001) %MON trcstat_ptracer11_mean       =   5.1285429928569E-10
(PID.TID 0000.0001) %MON trcstat_ptracer11_sd         =   1.0321183267224E-09
(PID.TID 0000.0001) %MON trcstat_ptracer11_del2       =   0.0000000000000E+00
(PID.TID 0000.0001) %MON trcstat_ptracer12_max        =   1.0304164857213E-09
(PID.TID 0000.0001) %MON trcstat_ptracer12_min        =   8.0449423880803E-36
(PID.TID 0000.0001) %MON trcstat_ptracer12_mean       =   1.3626303352266E-10
(PID.TID 0000.0001) %MON trcstat_ptracer12_sd         =   2.4923458927027E-10
(PID.TID 0000.0001) %MON trcstat_ptracer12_del2       =   0.0000000000000E+00
(PID.TID 0000.0001) %MON trcstat_ptracer13_max        =   1.6486663771541E-08
(PID.TID 0000.0001) %MON trcstat_ptracer13_min        =   1.2871907820929E-34
(PID.TID 0000.0001) %MON trcstat_ptracer13_mean       =   2.1802085363625E-09
(PID.TID 0000.0001) %MON trcstat_ptracer13_sd         =   3.9877534283243E-09
(PID.TID 0000.0001) %MON trcstat_ptracer13_del2       =   0.0000000000000E+00
(PID.TID 0000.0001) %MON trcstat_ptracer14_max        =   1.0304164503653E-12
(PID.TID 0000.0001) %MON trcstat_ptracer14_min        =   8.0449418105082E-39
(PID.TID 0000.0001) %MON trcstat_ptracer14_mean       =   1.3626302452915E-13
(PID.TID 0000.0001) %MON trcstat_ptracer14_sd         =   2.4923457505539E-13
(PID.TID 0000.0001) %MON trcstat_ptracer14_del2       =   0.0000000000000E+00
(PID.TID 0000.0001) %MON trcstat_ptracer15_max        =   4.2307901170774E-09
(PID.TID 0000.0001) %MON trcstat_ptracer15_min        =   4.7393941114567E-35
(PID.TID 0000.0001) %MON trcstat_ptracer15_mean       =   5.1286517254292E-10
(PID.TID 0000.0001) %MON trcstat_ptracer15_sd         =   1.0321129258645E-09
(PID.TID 0000.0001) %MON trcstat_ptracer15_del2       =   0.0000000000000E+00
(PID.TID 0000.0001) %MON trcstat_ptracer16_max        =   2.7152518301851E-04
(PID.TID 0000.0001) %MON trcstat_ptracer16_min        =   1.1768726465650E-06
(PID.TID 0000.0001) %MON trcstat_ptracer16_mean       =   7.8744414656503E-05
(PID.TID 0000.0001) %MON trcstat_ptracer16_sd         =   9.6327965005328E-05
(PID.TID 0000.0001) %MON trcstat_ptracer16_del2       =   0.0000000000000E+00
(PID.TID 0000.0001) %MON trcstat_ptracer17_max        =   4.3444029282961E-03
(PID.TID 0000.0001) %MON trcstat_ptracer17_min        =   1.8829962345039E-05
(PID.TID 0000.0001) %MON trcstat_ptracer17_mean       =   1.2599106345040E-03
(PID.TID 0000.0001) %MON trcstat_ptracer17_sd         =   1.5412474400852E-03
(PID.TID 0000.0001) %MON trcstat_ptracer17_del2       =   0.0000000000000E+00
(PID.TID 0000.0001) %MON trcstat_ptracer18_max        =   2.7152519897930E-07
(PID.TID 0000.0001) %MON trcstat_ptracer18_min        =   1.1768725182750E-09
(PID.TID 0000.0001) %MON trcstat_ptracer18_mean       =   7.8744415181369E-08
(PID.TID 0000.0001) %MON trcstat_ptracer18_sd         =   9.6327967058799E-08
(PID.TID 0000.0001) %MON trcstat_ptracer18_del2       =   0.0000000000000E+00
(PID.TID 0000.0001) %MON trcstat_ptracer19_max        =   1.6239075643479E-02
(PID.TID 0000.0001) %MON trcstat_ptracer19_min        =   1.1401897530467E-03
(PID.TID 0000.0001) %MON trcstat_ptracer19_mean       =   5.4871201117666E-03
(PID.TID 0000.0001) %MON trcstat_ptracer19_sd         =   5.1666998783687E-03
(PID.TID 0000.0001) %MON trcstat_ptracer19_del2       =   0.0000000000000E+00
(PID.TID 0000.0001) %MON trcstat_ptracer20_max        =   2.5657885656749E-02
(PID.TID 0000.0001) %MON trcstat_ptracer20_min        =   1.8771465384296E-07
(PID.TID 0000.0001) %MON trcstat_ptracer20_mean       =   6.0851287295580E-04
(PID.TID 0000.0001) %MON trcstat_ptracer20_sd         =   3.2583070950786E-03
(PID.TID 0000.0001) %MON trcstat_ptracer20_del2       =   0.0000000000000E+00
(PID.TID 0000.0001) %MON trcstat_ptracer21_max        =   1.8245733324275E-02
(PID.TID 0000.0001) %MON trcstat_ptracer21_min        =   3.8775807092714E-06
(PID.TID 0000.0001) %MON trcstat_ptracer21_mean       =   6.0454184565768E-04
(PID.TID 0000.0001) %MON trcstat_ptracer21_sd         =   1.9421102218667E-03
(PID.TID 0000.0001) %MON trcstat_ptracer21_del2       =   0.0000000000000E+00
(PID.TID 0000.0001) %MON trcstat_ptracer22_max        =   7.2236554220362E-06
(PID.TID 0000.0001) %MON trcstat_ptracer22_min        =   1.4160604848342E-29
(PID.TID 0000.0001) %MON trcstat_ptracer22_mean       =   2.1568595808011E-07
(PID.TID 0000.0001) %MON trcstat_ptracer22_sd         =   1.1290570017295E-06
(PID.TID 0000.0001) %MON trcstat_ptracer22_del2       =   0.0000000000000E+00
(PID.TID 0000.0001) %MON trcstat_ptracer23_max        =   7.3773736275094E-06
(PID.TID 0000.0001) %MON trcstat_ptracer23_min        =   1.1449875060182E-37
(PID.TID 0000.0001) %MON trcstat_ptracer23_mean       =   2.1965739356912E-07
(PID.TID 0000.0001) %MON trcstat_ptracer23_sd         =   1.1533780898885E-06
(PID.TID 0000.0001) %MON trcstat_ptracer23_del2       =   0.0000000000000E+00
(PID.TID 0000.0001) %MON trcstat_ptracer24_max        =   7.2236554220372E-06
(PID.TID 0000.0001) %MON trcstat_ptracer24_min        =   1.4160604848342E-29
(PID.TID 0000.0001) %MON trcstat_ptracer24_mean       =   2.1541290472976E-07
(PID.TID 0000.0001) %MON trcstat_ptracer24_sd         =   1.1287740039800E-06
(PID.TID 0000.0001) %MON trcstat_ptracer24_del2       =   0.0000000000000E+00
(PID.TID 0000.0001) %MON trcstat_ptracer25_max        =   7.4775086876888E-06
(PID.TID 0000.0001) %MON trcstat_ptracer25_min        =   1.4160604848342E-29
(PID.TID 0000.0001) %MON trcstat_ptracer25_mean       =   2.2292210567427E-07
(PID.TID 0000.0001) %MON trcstat_ptracer25_sd         =   1.1677431329879E-06
(PID.TID 0000.0001) %MON trcstat_ptracer25_del2       =   0.0000000000000E+00
(PID.TID 0000.0001) %MON trcstat_ptracer26_max        =   7.4644028358489E-06
(PID.TID 0000.0001) %MON trcstat_ptracer26_min        =   1.1449875060182E-37
(PID.TID 0000.0001) %MON trcstat_ptracer26_mean       =   2.2195261515236E-07
(PID.TID 0000.0001) %MON trcstat_ptracer26_sd         =   1.1655154713472E-06
(PID.TID 0000.0001) %MON trcstat_ptracer26_del2       =   0.0000000000000E+00
(PID.TID 0000.0001) %MON trcstat_ptracer27_max        =   7.2242642740708E-06
(PID.TID 0000.0001) %MON trcstat_ptracer27_min        =   1.1449875060182E-37
(PID.TID 0000.0001) %MON trcstat_ptracer27_mean       =   2.1541292009959E-07
(PID.TID 0000.0001) %MON trcstat_ptracer27_sd         =   1.1293476810178E-06
(PID.TID 0000.0001) %MON trcstat_ptracer27_del2       =   0.0000000000000E+00
(PID.TID 0000.0001) %MON trcstat_ptracer28_max        =   7.3534156985274E-06
(PID.TID 0000.0001) %MON trcstat_ptracer28_min        =   1.1449875060182E-37
(PID.TID 0000.0001) %MON trcstat_ptracer28_mean       =   2.1900834260270E-07
(PID.TID 0000.0001) %MON trcstat_ptracer28_sd         =   1.1494609747933E-06
(PID.TID 0000.0001) %MON trcstat_ptracer28_del2       =   0.0000000000000E+00
(PID.TID 0000.0001) %MON trcstat_ptracer29_max        =   7.2242642740690E-06
(PID.TID 0000.0001) %MON trcstat_ptracer29_min        =   1.1449875060182E-37
(PID.TID 0000.0001) %MON trcstat_ptracer29_mean       =   2.1556438762149E-07
(PID.TID 0000.0001) %MON trcstat_ptracer29_sd         =   1.1299192155065E-06
(PID.TID 0000.0001) %MON trcstat_ptracer29_del2       =   0.0000000000000E+00
(PID.TID 0000.0001) %MON trcstat_ptracer30_max        =   7.2716660189370E-06
(PID.TID 0000.0001) %MON trcstat_ptracer30_min        =   1.1449875060182E-37
(PID.TID 0000.0001) %MON trcstat_ptracer30_mean       =   2.1771643610233E-07
(PID.TID 0000.0001) %MON trcstat_ptracer30_sd         =   1.1396204046805E-06
(PID.TID 0000.0001) %MON trcstat_ptracer30_del2       =   0.0000000000000E+00
(PID.TID 0000.0001) %MON trcstat_ptracer31_max        =   7.5099718245979E-06
(PID.TID 0000.0001) %MON trcstat_ptracer31_min        =   1.1449875060182E-37
(PID.TID 0000.0001) %MON trcstat_ptracer31_mean       =   2.2332354671154E-07
(PID.TID 0000.0001) %MON trcstat_ptracer31_sd         =   1.1728343815513E-06
(PID.TID 0000.0001) %MON trcstat_ptracer31_del2       =   0.0000000000000E+00
(PID.TID 0000.0001) %MON trcstat_ptracer32_max        =   7.2242642740746E-06
(PID.TID 0000.0001) %MON trcstat_ptracer32_min        =   1.1449875060182E-37
(PID.TID 0000.0001) %MON trcstat_ptracer32_mean       =   2.1541290466751E-07
(PID.TID 0000.0001) %MON trcstat_ptracer32_sd         =   1.1293476836563E-06
(PID.TID 0000.0001) %MON trcstat_ptracer32_del2       =   0.0000000000000E+00
(PID.TID 0000.0001) %MON trcstat_ptracer33_max        =   7.2242642740682E-06
(PID.TID 0000.0001) %MON trcstat_ptracer33_min        =   1.1449875060182E-37
(PID.TID 0000.0001) %MON trcstat_ptracer33_mean       =   2.1541290466731E-07
(PID.TID 0000.0001) %MON trcstat_ptracer33_sd         =   1.1293476836553E-06
(PID.TID 0000.0001) %MON trcstat_ptracer33_del2       =   0.0000000000000E+00
(PID.TID 0000.0001) %MON trcstat_ptracer34_max        =   7.3652799700554E-06
(PID.TID 0000.0001) %MON trcstat_ptracer34_min        =   1.1449875060182E-37
(PID.TID 0000.0001) %MON trcstat_ptracer34_mean       =   2.1886461893861E-07
(PID.TID 0000.0001) %MON trcstat_ptracer34_sd         =   1.1495638485012E-06
(PID.TID 0000.0001) %MON trcstat_ptracer34_del2       =   0.0000000000000E+00
(PID.TID 0000.0001) %MON trcstat_ptracer35_max        =   7.2236554197960E-06
(PID.TID 0000.0001) %MON trcstat_ptracer35_min        =   1.4160604848341E-29
(PID.TID 0000.0001) %MON trcstat_ptracer35_mean       =   2.1541290466714E-07
(PID.TID 0000.0001) %MON trcstat_ptracer35_sd         =   1.1287740036429E-06
(PID.TID 0000.0001) %MON trcstat_ptracer35_del2       =   0.0000000000000E+00
(PID.TID 0000.0001) %MON trcstat_ptracer36_max        =   7.5331354578787E-06
(PID.TID 0000.0001) %MON trcstat_ptracer36_min        =   1.1449875060182E-37
(PID.TID 0000.0001) %MON trcstat_ptracer36_mean       =   2.2393606345054E-07
(PID.TID 0000.0001) %MON trcstat_ptracer36_sd         =   1.1764007643833E-06
(PID.TID 0000.0001) %MON trcstat_ptracer36_del2       =   0.0000000000000E+00
(PID.TID 0000.0001) %MON trcstat_ptracer37_max        =   7.2242679125067E-06
(PID.TID 0000.0001) %MON trcstat_ptracer37_min        =   1.1449875060182E-37
(PID.TID 0000.0001) %MON trcstat_ptracer37_mean       =   2.1626687388061E-07
(PID.TID 0000.0001) %MON trcstat_ptracer37_sd         =   1.1327482571398E-06
(PID.TID 0000.0001) %MON trcstat_ptracer37_del2       =   0.0000000000000E+00
(PID.TID 0000.0001) %MON trcstat_ptracer38_max        =   7.4223002028514E-06
(PID.TID 0000.0001) %MON trcstat_ptracer38_min        =   1.1449875060182E-37
(PID.TID 0000.0001) %MON trcstat_ptracer38_mean       =   2.2061941549779E-07
(PID.TID 0000.0001) %MON trcstat_ptracer38_sd         =   1.1590579136899E-06
(PID.TID 0000.0001) %MON trcstat_ptracer38_del2       =   0.0000000000000E+00
(PID.TID 0000.0001) %MON trcstat_ptracer39_max        =   7.3959714304317E-06
(PID.TID 0000.0001) %MON trcstat_ptracer39_min        =   1.4160604848341E-29
(PID.TID 0000.0001) %MON trcstat_ptracer39_mean       =   2.2057099138770E-07
(PID.TID 0000.0001) %MON trcstat_ptracer39_sd         =   1.1552759697403E-06
(PID.TID 0000.0001) %MON trcstat_ptracer39_del2       =   0.0000000000000E+00
(PID.TID 0000.0001) %MON trcstat_ptracer40_max        =   7.2236554220355E-06
(PID.TID 0000.0001) %MON trcstat_ptracer40_min        =   1.4160604848342E-29
(PID.TID 0000.0001) %MON trcstat_ptracer40_mean       =   2.1541290472974E-07
(PID.TID 0000.0001) %MON trcstat_ptracer40_sd         =   1.1287740039797E-06
(PID.TID 0000.0001) %MON trcstat_ptracer40_del2       =   0.0000000000000E+00
(PID.TID 0000.0001) %MON trcstat_ptracer41_max        =   7.2242642740690E-06
(PID.TID 0000.0001) %MON trcstat_ptracer41_min        =   1.1449875060182E-37
(PID.TID 0000.0001) %MON trcstat_ptracer41_mean       =   2.1541435845121E-07
(PID.TID 0000.0001) %MON trcstat_ptracer41_sd         =   1.1293475261217E-06
(PID.TID 0000.0001) %MON trcstat_ptracer41_del2       =   0.0000000000000E+00
(PID.TID 0000.0001) %MON trcstat_ptracer42_max        =   7.2242642740701E-06
(PID.TID 0000.0001) %MON trcstat_ptracer42_min        =   1.1449875060182E-37
(PID.TID 0000.0001) %MON trcstat_ptracer42_mean       =   2.1541290466737E-07
(PID.TID 0000.0001) %MON trcstat_ptracer42_sd         =   1.1293476836556E-06
(PID.TID 0000.0001) %MON trcstat_ptracer42_del2       =   0.0000000000000E+00
(PID.TID 0000.0001) %MON trcstat_ptracer43_max        =   7.2242642740702E-06
(PID.TID 0000.0001) %MON trcstat_ptracer43_min        =   1.1449875060182E-37
(PID.TID 0000.0001) %MON trcstat_ptracer43_mean       =   2.1541292613487E-07
(PID.TID 0000.0001) %MON trcstat_ptracer43_sd         =   1.1293476800780E-06
(PID.TID 0000.0001) %MON trcstat_ptracer43_del2       =   0.0000000000000E+00
(PID.TID 0000.0001) %MON trcstat_ptracer44_max        =   7.3831194620309E-06
(PID.TID 0000.0001) %MON trcstat_ptracer44_min        =   1.1449875060182E-37
(PID.TID 0000.0001) %MON trcstat_ptracer44_mean       =   2.1967491058695E-07
(PID.TID 0000.0001) %MON trcstat_ptracer44_sd         =   1.1536814847470E-06
(PID.TID 0000.0001) %MON trcstat_ptracer44_del2       =   0.0000000000000E+00
(PID.TID 0000.0001) %MON trcstat_ptracer45_max        =   7.2242642740706E-06
(PID.TID 0000.0001) %MON trcstat_ptracer45_min        =   1.1449875060182E-37
(PID.TID 0000.0001) %MON trcstat_ptracer45_mean       =   2.1541296558375E-07
(PID.TID 0000.0001) %MON trcstat_ptracer45_sd         =   1.1293476738302E-06
(PID.TID 0000.0001) %MON trcstat_ptracer45_del2       =   0.0000000000000E+00
(PID.TID 0000.0001) %MON trcstat_ptracer46_max        =   7.5488544066125E-06
(PID.TID 0000.0001) %MON trcstat_ptracer46_min        =   1.4160604848342E-29
(PID.TID 0000.0001) %MON trcstat_ptracer46_mean       =   2.2452564038543E-07
(PID.TID 0000.0001) %MON trcstat_ptracer46_sd         =   1.1782804714925E-06
(PID.TID 0000.0001) %MON trcstat_ptracer46_del2       =   0.0000000000000E+00
(PID.TID 0000.0001) %MON trcstat_ptracer47_max        =   7.3872488476087E-06
(PID.TID 0000.0001) %MON trcstat_ptracer47_min        =   1.1449875060182E-37
(PID.TID 0000.0001) %MON trcstat_ptracer47_mean       =   2.2000371343918E-07
(PID.TID 0000.0001) %MON trcstat_ptracer47_sd         =   1.1551702383667E-06
(PID.TID 0000.0001) %MON trcstat_ptracer47_del2       =   0.0000000000000E+00
(PID.TID 0000.0001) %MON trcstat_ptracer48_max        =   7.2236554220347E-06
(PID.TID 0000.0001) %MON trcstat_ptracer48_min        =   1.4160604848342E-29
(PID.TID 0000.0001) %MON trcstat_ptracer48_mean       =   2.1559365716752E-07
(PID.TID 0000.0001) %MON trcstat_ptracer48_sd         =   1.1288591584346E-06
(PID.TID 0000.0001) %MON trcstat_ptracer48_del2       =   0.0000000000000E+00
(PID.TID 0000.0001) %MON trcstat_ptracer49_max        =   7.2242642740688E-06
(PID.TID 0000.0001) %MON trcstat_ptracer49_min        =   1.1449875060182E-37
(PID.TID 0000.0001) %MON trcstat_ptracer49_mean       =   2.1541290466734E-07
(PID.TID 0000.0001) %MON trcstat_ptracer49_sd         =   1.1293476836554E-06
(PID.TID 0000.0001) %MON trcstat_ptracer49_del2       =   0.0000000000000E+00
(PID.TID 0000.0001) %MON trcstat_ptracer50_max        =   7.2242642740699E-06
(PID.TID 0000.0001) %MON trcstat_ptracer50_min        =   1.1449875060182E-37
(PID.TID 0000.0001) %MON trcstat_ptracer50_mean       =   2.1541291389029E-07
(PID.TID 0000.0001) %MON trcstat_ptracer50_sd         =   1.1293476822154E-06
(PID.TID 0000.0001) %MON trcstat_ptracer50_del2       =   0.0000000000000E+00
(PID.TID 0000.0001) %MON trcstat_ptracer51_max        =   7.2242642740698E-06
(PID.TID 0000.0001) %MON trcstat_ptracer51_min        =   1.1449875060182E-37
(PID.TID 0000.0001) %MON trcstat_ptracer51_mean       =   2.1541310535319E-07
(PID.TID 0000.0001) %MON trcstat_ptracer51_sd         =   1.1293476633974E-06
(PID.TID 0000.0001) %MON trcstat_ptracer51_del2       =   0.0000000000000E+00
(PID.TID 0000.0001) %MON trcstat_ptracer52_max        =   7.2242642740690E-06
(PID.TID 0000.0001) %MON trcstat_ptracer52_min        =   1.1449875060182E-37
(PID.TID 0000.0001) %MON trcstat_ptracer52_mean       =   2.1541290466735E-07
(PID.TID 0000.0001) %MON trcstat_ptracer52_sd         =   1.1293476836555E-06
(PID.TID 0000.0001) %MON trcstat_ptracer52_del2       =   0.0000000000000E+00
(PID.TID 0000.0001) %MON trcstat_ptracer53_max        =   7.2242642740764E-06
(PID.TID 0000.0001) %MON trcstat_ptracer53_min        =   1.1449875060182E-37
(PID.TID 0000.0001) %MON trcstat_ptracer53_mean       =   2.1601647978567E-07
(PID.TID 0000.0001) %MON trcstat_ptracer53_sd         =   1.1308305392742E-06
(PID.TID 0000.0001) %MON trcstat_ptracer53_del2       =   0.0000000000000E+00
(PID.TID 0000.0001) %MON trcstat_ptracer54_max        =   7.2242642740682E-06
(PID.TID 0000.0001) %MON trcstat_ptracer54_min        =   1.1449875060182E-37
(PID.TID 0000.0001) %MON trcstat_ptracer54_mean       =   2.1541290623294E-07
(PID.TID 0000.0001) %MON trcstat_ptracer54_sd         =   1.1293476833959E-06
(PID.TID 0000.0001) %MON trcstat_ptracer54_del2       =   0.0000000000000E+00
(PID.TID 0000.0001) %MON trcstat_ptracer55_max        =   7.2242642740731E-06
(PID.TID 0000.0001) %MON trcstat_ptracer55_min        =   1.1449875060182E-37
(PID.TID 0000.0001) %MON trcstat_ptracer55_mean       =   2.1541290469644E-07
(PID.TID 0000.0001) %MON trcstat_ptracer55_sd         =   1.1293476836505E-06
(PID.TID 0000.0001) %MON trcstat_ptracer55_del2       =   0.0000000000000E+00
(PID.TID 0000.0001) %MON trcstat_ptracer56_max        =   7.2242642740707E-06
(PID.TID 0000.0001) %MON trcstat_ptracer56_min        =   1.1449875060182E-37
(PID.TID 0000.0001) %MON trcstat_ptracer56_mean       =   2.1541324512585E-07
(PID.TID 0000.0001) %MON trcstat_ptracer56_sd         =   1.1293476354768E-06
(PID.TID 0000.0001) %MON trcstat_ptracer56_del2       =   0.0000000000000E+00
(PID.TID 0000.0001) %MON trcstat_ptracer57_max        =   7.2242642740694E-06
(PID.TID 0000.0001) %MON trcstat_ptracer57_min        =   1.1449875060182E-37
(PID.TID 0000.0001) %MON trcstat_ptracer57_mean       =   2.1541290466736E-07
(PID.TID 0000.0001) %MON trcstat_ptracer57_sd         =   1.1293476836555E-06
(PID.TID 0000.0001) %MON trcstat_ptracer57_del2       =   0.0000000000000E+00
(PID.TID 0000.0001) %MON trcstat_ptracer58_max        =   7.2242642740681E-06
(PID.TID 0000.0001) %MON trcstat_ptracer58_min        =   1.1449875060182E-37
(PID.TID 0000.0001) %MON trcstat_ptracer58_mean       =   2.1541290702706E-07
(PID.TID 0000.0001) %MON trcstat_ptracer58_sd         =   1.1293476832705E-06
(PID.TID 0000.0001) %MON trcstat_ptracer58_del2       =   0.0000000000000E+00
(PID.TID 0000.0001) %MON trcstat_ptracer59_max        =   7.2242642740761E-06
(PID.TID 0000.0001) %MON trcstat_ptracer59_min        =   1.1449875060182E-37
(PID.TID 0000.0001) %MON trcstat_ptracer59_mean       =   2.1541290466756E-07
(PID.TID 0000.0001) %MON trcstat_ptracer59_sd         =   1.1293476836565E-06
(PID.TID 0000.0001) %MON trcstat_ptracer59_del2       =   0.0000000000000E+00
(PID.TID 0000.0001) %MON trcstat_ptracer60_max        =   7.2242642740726E-06
(PID.TID 0000.0001) %MON trcstat_ptracer60_min        =   1.1449875060182E-37
(PID.TID 0000.0001) %MON trcstat_ptracer60_mean       =   2.1541297029774E-07
(PID.TID 0000.0001) %MON trcstat_ptracer60_sd         =   1.1293476714821E-06
(PID.TID 0000.0001) %MON trcstat_ptracer60_del2       =   0.0000000000000E+00
(PID.TID 0000.0001) %MON trcstat_ptracer61_max        =   7.2242642740724E-06
(PID.TID 0000.0001) %MON trcstat_ptracer61_min        =   1.1449875060182E-37
(PID.TID 0000.0001) %MON trcstat_ptracer61_mean       =   2.1541290466745E-07
(PID.TID 0000.0001) %MON trcstat_ptracer61_sd         =   1.1293476836559E-06
(PID.TID 0000.0001) %MON trcstat_ptracer61_del2       =   0.0000000000000E+00
(PID.TID 0000.0001) %MON trcstat_ptracer62_max        =   7.4104863575536E-06
(PID.TID 0000.0001) %MON trcstat_ptracer62_min        =   1.1449875060182E-37
(PID.TID 0000.0001) %MON trcstat_ptracer62_mean       =   2.2065384935433E-07
(PID.TID 0000.0001) %MON trcstat_ptracer62_sd         =   1.1586574820834E-06
(PID.TID 0000.0001) %MON trcstat_ptracer62_del2       =   0.0000000000000E+00
(PID.TID 0000.0001) %MON trcstat_ptracer63_max        =   7.2242642740709E-06
(PID.TID 0000.0001) %MON trcstat_ptracer63_min        =   1.1449875060182E-37
(PID.TID 0000.0001) %MON trcstat_ptracer63_mean       =   2.1541296637936E-07
(PID.TID 0000.0001) %MON trcstat_ptracer63_sd         =   1.1293476737018E-06
(PID.TID 0000.0001) %MON trcstat_ptracer63_del2       =   0.0000000000000E+00
(PID.TID 0000.0001) %MON trcstat_ptracer64_max        =   7.2242642740737E-06
(PID.TID 0000.0001) %MON trcstat_ptracer64_min        =   1.1449875060182E-37
(PID.TID 0000.0001) %MON trcstat_ptracer64_mean       =   2.1541290466749E-07
(PID.TID 0000.0001) %MON trcstat_ptracer64_sd         =   1.1293476836561E-06
(PID.TID 0000.0001) %MON trcstat_ptracer64_del2       =   0.0000000000000E+00
(PID.TID 0000.0001) %MON trcstat_ptracer65_max        =   7.2951394310751E-06
(PID.TID 0000.0001) %MON trcstat_ptracer65_min        =   1.1449875060182E-37
(PID.TID 0000.0001) %MON trcstat_ptracer65_mean       =   2.1813875422835E-07
(PID.TID 0000.0001) %MON trcstat_ptracer65_sd         =   1.1420627053260E-06
(PID.TID 0000.0001) %MON trcstat_ptracer65_del2       =   0.0000000000000E+00
(PID.TID 0000.0001) %MON trcstat_ptracer66_max        =   7.2242691538751E-06
(PID.TID 0000.0001) %MON trcstat_ptracer66_min        =   1.1449875060182E-37
(PID.TID 0000.0001) %MON trcstat_ptracer66_mean       =   2.1631326118941E-07
(PID.TID 0000.0001) %MON trcstat_ptracer66_sd         =   1.1329931315428E-06
(PID.TID 0000.0001) %MON trcstat_ptracer66_del2       =   0.0000000000000E+00
(PID.TID 0000.0001) %MON trcstat_ptracer67_max        =   7.2242642740687E-06
(PID.TID 0000.0001) %MON trcstat_ptracer67_min        =   1.1449875060182E-37
(PID.TID 0000.0001) %MON trcstat_ptracer67_mean       =   2.1541290466733E-07
(PID.TID 0000.0001) %MON trcstat_ptracer67_sd         =   1.1293476836554E-06
(PID.TID 0000.0001) %MON trcstat_ptracer67_del2       =   0.0000000000000E+00
(PID.TID 0000.0001) %MON trcstat_ptracer68_max        =   7.5500855548868E-06
(PID.TID 0000.0001) %MON trcstat_ptracer68_min        =   1.4160604848342E-29
(PID.TID 0000.0001) %MON trcstat_ptracer68_mean       =   2.2465609129776E-07
(PID.TID 0000.0001) %MON trcstat_ptracer68_sd         =   1.1784113063083E-06
(PID.TID 0000.0001) %MON trcstat_ptracer68_del2       =   0.0000000000000E+00
(PID.TID 0000.0001) %MON trcstat_ptracer69_max        =   7.2242642740694E-06
(PID.TID 0000.0001) %MON trcstat_ptracer69_min        =   1.1449875060182E-37
(PID.TID 0000.0001) %MON trcstat_ptracer69_mean       =   2.1541298832660E-07
(PID.TID 0000.0001) %MON trcstat_ptracer69_sd         =   1.1293476735088E-06
(PID.TID 0000.0001) %MON trcstat_ptracer69_del2       =   0.0000000000000E+00
(PID.TID 0000.0001) %MON trcstat_ptracer70_max        =   7.4626914735732E-06
(PID.TID 0000.0001) %MON trcstat_ptracer70_min        =   1.4160604848342E-29
(PID.TID 0000.0001) %MON trcstat_ptracer70_mean       =   2.2220936217099E-07
(PID.TID 0000.0001) %MON trcstat_ptracer70_sd         =   1.1651513900731E-06
(PID.TID 0000.0001) %MON trcstat_ptracer70_del2       =   0.0000000000000E+00
(PID.TID 0000.0001) %MON trcstat_ptracer71_max        =   7.2242642740694E-06
(PID.TID 0000.0001) %MON trcstat_ptracer71_min        =   1.1449875060182E-37
(PID.TID 0000.0001) %MON trcstat_ptracer71_mean       =   2.1545300699691E-07
(PID.TID 0000.0001) %MON trcstat_ptracer71_sd         =   1.1293915972580E-06
(PID.TID 0000.0001) %MON trcstat_ptracer71_del2       =   0.0000000000000E+00
(PID.TID 0000.0001) %MON trcstat_ptracer72_max        =   7.2242642740700E-06
(PID.TID 0000.0001) %MON trcstat_ptracer72_min        =   1.1449875060182E-37
(PID.TID 0000.0001) %MON trcstat_ptracer72_mean       =   2.1541434291833E-07
(PID.TID 0000.0001) %MON trcstat_ptracer72_sd         =   1.1293475223306E-06
(PID.TID 0000.0001) %MON trcstat_ptracer72_del2       =   0.0000000000000E+00
(PID.TID 0000.0001) %MON trcstat_ptracer73_max        =   7.5335861818960E-06
(PID.TID 0000.0001) %MON trcstat_ptracer73_min        =   1.4160604848341E-29
(PID.TID 0000.0001) %MON trcstat_ptracer73_mean       =   2.2390541618977E-07
(PID.TID 0000.0001) %MON trcstat_ptracer73_sd         =   1.1754040470205E-06
(PID.TID 0000.0001) %MON trcstat_ptracer73_del2       =   0.0000000000000E+00
(PID.TID 0000.0001) %MON trcstat_ptracer74_max        =   7.4074738510681E-06
(PID.TID 0000.0001) %MON trcstat_ptracer74_min        =   1.1449875060182E-37
(PID.TID 0000.0001) %MON trcstat_ptracer74_mean       =   2.1988927897873E-07
(PID.TID 0000.0001) %MON trcstat_ptracer74_sd         =   1.1553506797324E-06
(PID.TID 0000.0001) %MON trcstat_ptracer74_del2       =   0.0000000000000E+00
(PID.TID 0000.0001) %MON trcstat_ptracer75_max        =   7.2242642740750E-06
(PID.TID 0000.0001) %MON trcstat_ptracer75_min        =   1.1449875060182E-37
(PID.TID 0000.0001) %MON trcstat_ptracer75_mean       =   2.1541316092003E-07
(PID.TID 0000.0001) %MON trcstat_ptracer75_sd         =   1.1293476361280E-06
(PID.TID 0000.0001) %MON trcstat_ptracer75_del2       =   0.0000000000000E+00
(PID.TID 0000.0001) %MON trcstat_ptracer76_max        =   7.2236554197959E-06
(PID.TID 0000.0001) %MON trcstat_ptracer76_min        =   1.4160604848341E-29
(PID.TID 0000.0001) %MON trcstat_ptracer76_mean       =   2.1541290466713E-07
(PID.TID 0000.0001) %MON trcstat_ptracer76_sd         =   1.1287740036429E-06
(PID.TID 0000.0001) %MON trcstat_ptracer76_del2       =   0.0000000000000E+00
(PID.TID 0000.0001) %MON trcstat_ptracer77_max        =   7.5418903662388E-06
(PID.TID 0000.0001) %MON trcstat_ptracer77_min        =   1.4160604848341E-29
(PID.TID 0000.0001) %MON trcstat_ptracer77_mean       =   2.2439818863140E-07
(PID.TID 0000.0001) %MON trcstat_ptracer77_sd         =   1.1771242048157E-06
(PID.TID 0000.0001) %MON trcstat_ptracer77_del2       =   0.0000000000000E+00
(PID.TID 0000.0001) %MON trcstat_ptracer78_max        =   7.2242642740701E-06
(PID.TID 0000.0001) %MON trcstat_ptracer78_min        =   1.1449875060182E-37
(PID.TID 0000.0001) %MON trcstat_ptracer78_mean       =   2.1541290466738E-07
(PID.TID 0000.0001) %MON trcstat_ptracer78_sd         =   1.1293476836556E-06
(PID.TID 0000.0001) %MON trcstat_ptracer78_del2       =   0.0000000000000E+00
(PID.TID 0000.0001) %MON trcstat_ptracer79_max        =   7.2242642740698E-06
(PID.TID 0000.0001) %MON trcstat_ptracer79_min        =   1.1449875060182E-37
(PID.TID 0000.0001) %MON trcstat_ptracer79_mean       =   2.1541290466736E-07
(PID.TID 0000.0001) %MON trcstat_ptracer79_sd         =   1.1293476836556E-06
(PID.TID 0000.0001) %MON trcstat_ptracer79_del2       =   0.0000000000000E+00
(PID.TID 0000.0001) %MON trcstat_ptracer80_max        =   7.4868728512551E-06
(PID.TID 0000.0001) %MON trcstat_ptracer80_min        =   1.4160604848342E-29
(PID.TID 0000.0001) %MON trcstat_ptracer80_mean       =   2.2293499962342E-07
(PID.TID 0000.0001) %MON trcstat_ptracer80_sd         =   1.1688918748521E-06
(PID.TID 0000.0001) %MON trcstat_ptracer80_del2       =   0.0000000000000E+00
(PID.TID 0000.0001) %MON trcstat_ptracer81_max        =   7.3742828684115E-06
(PID.TID 0000.0001) %MON trcstat_ptracer81_min        =   1.1449875060182E-37
(PID.TID 0000.0001) %MON trcstat_ptracer81_mean       =   2.1966978194250E-07
(PID.TID 0000.0001) %MON trcstat_ptracer81_sd         =   1.1530217418250E-06
(PID.TID 0000.0001) %MON trcstat_ptracer81_del2       =   0.0000000000000E+00
(PID.TID 0000.0001) %MON trcstat_ptracer82_max        =   7.2242642740684E-06
(PID.TID 0000.0001) %MON trcstat_ptracer82_min        =   1.1449875060182E-37
(PID.TID 0000.0001) %MON trcstat_ptracer82_mean       =   2.1541528669986E-07
(PID.TID 0000.0001) %MON trcstat_ptracer82_sd         =   1.1293496204343E-06
(PID.TID 0000.0001) %MON trcstat_ptracer82_del2       =   0.0000000000000E+00
(PID.TID 0000.0001) %MON trcstat_ptracer83_max        =   7.4801773339411E-06
(PID.TID 0000.0001) %MON trcstat_ptracer83_min        =   1.4160604848342E-29
(PID.TID 0000.0001) %MON trcstat_ptracer83_mean       =   2.2240848020573E-07
(PID.TID 0000.0001) %MON trcstat_ptracer83_sd         =   1.1672332444905E-06
(PID.TID 0000.0001) %MON trcstat_ptracer83_del2       =   0.0000000000000E+00
(PID.TID 0000.0001) %MON trcstat_ptracer84_max        =   7.4104564300589E-06
(PID.TID 0000.0001) %MON trcstat_ptracer84_min        =   1.1449875060182E-37
(PID.TID 0000.0001) %MON trcstat_ptracer84_mean       =   2.2044633743164E-07
(PID.TID 0000.0001) %MON trcstat_ptracer84_sd         =   1.1577905273593E-06
(PID.TID 0000.0001) %MON trcstat_ptracer84_del2       =   0.0000000000000E+00
(PID.TID 0000.0001) %MON trcstat_ptracer85_max        =   7.2242642740702E-06
(PID.TID 0000.0001) %MON trcstat_ptracer85_min        =   1.1449875060182E-37
(PID.TID 0000.0001) %MON trcstat_ptracer85_mean       =   2.1565452836984E-07
(PID.TID 0000.0001) %MON trcstat_ptracer85_sd         =   1.1300312021501E-06
(PID.TID 0000.0001) %MON trcstat_ptracer85_del2       =   0.0000000000000E+00
(PID.TID 0000.0001) %MON trcstat_ptracer86_max        =   7.2242642740732E-06
(PID.TID 0000.0001) %MON trcstat_ptracer86_min        =   1.1449875060182E-37
(PID.TID 0000.0001) %MON trcstat_ptracer86_mean       =   2.1541290466747E-07
(PID.TID 0000.0001) %MON trcstat_ptracer86_sd         =   1.1293476836560E-06
(PID.TID 0000.0001) %MON trcstat_ptracer86_del2       =   0.0000000000000E+00
(PID.TID 0000.0001) %MON trcstat_ptracer87_max        =   7.2236554220337E-06
(PID.TID 0000.0001) %MON trcstat_ptracer87_min        =   1.4160604848342E-29
(PID.TID 0000.0001) %MON trcstat_ptracer87_mean       =   2.1541290472966E-07
(PID.TID 0000.0001) %MON trcstat_ptracer87_sd         =   1.1287740039794E-06
(PID.TID 0000.0001) %MON trcstat_ptracer87_del2       =   0.0000000000000E+00
(PID.TID 0000.0001) %MON trcstat_ptracer88_max        =   7.2242642740687E-06
(PID.TID 0000.0001) %MON trcstat_ptracer88_min        =   1.1449875060182E-37
(PID.TID 0000.0001) %MON trcstat_ptracer88_mean       =   2.1541293270343E-07
(PID.TID 0000.0001) %MON trcstat_ptracer88_sd         =   1.1293476790713E-06
(PID.TID 0000.0001) %MON trcstat_ptracer88_del2       =   0.0000000000000E+00
(PID.TID 0000.0001) %MON trcstat_ptracer89_max        =   7.4323796480396E-06
(PID.TID 0000.0001) %MON trcstat_ptracer89_min        =   1.1449875060182E-37
(PID.TID 0000.0001) %MON trcstat_ptracer89_mean       =   2.2164049933560E-07
(PID.TID 0000.0001) %MON trcstat_ptracer89_sd         =   1.1632014985949E-06
(PID.TID 0000.0001) %MON trcstat_ptracer89_del2       =   0.0000000000000E+00
(PID.TID 0000.0001) %MON trcstat_ptracer90_max        =   7.2242642740708E-06
(PID.TID 0000.0001) %MON trcstat_ptracer90_min        =   1.1449875060182E-37
(PID.TID 0000.0001) %MON trcstat_ptracer90_mean       =   2.1541290466740E-07
(PID.TID 0000.0001) %MON trcstat_ptracer90_sd         =   1.1293476836557E-06
(PID.TID 0000.0001) %MON trcstat_ptracer90_del2       =   0.0000000000000E+00
(PID.TID 0000.0001) %MON trcstat_ptracer91_max        =   7.3809796616381E-06
(PID.TID 0000.0001) %MON trcstat_ptracer91_min        =   1.1449875060182E-37
(PID.TID 0000.0001) %MON trcstat_ptracer91_mean       =   2.1913530947407E-07
(PID.TID 0000.0001) %MON trcstat_ptracer91_sd         =   1.1514101144430E-06
(PID.TID 0000.0001) %MON trcstat_ptracer91_del2       =   0.0000000000000E+00
(PID.TID 0000.0001) %MON trcstat_ptracer92_max        =   7.2242642740735E-06
(PID.TID 0000.0001) %MON trcstat_ptracer92_min        =   1.1449875060182E-37
(PID.TID 0000.0001) %MON trcstat_ptracer92_mean       =   2.1544181254859E-07
(PID.TID 0000.0001) %MON trcstat_ptracer92_sd         =   1.1293446783814E-06
(PID.TID 0000.0001) %MON trcstat_ptracer92_del2       =   0.0000000000000E+00
(PID.TID 0000.0001) %MON trcstat_ptracer93_max        =   7.4279722664899E-06
(PID.TID 0000.0001) %MON trcstat_ptracer93_min        =   1.1449875060182E-37
(PID.TID 0000.0001) %MON trcstat_ptracer93_mean       =   2.2115933033803E-07
(PID.TID 0000.0001) %MON trcstat_ptracer93_sd         =   1.1616459650650E-06
(PID.TID 0000.0001) %MON trcstat_ptracer93_del2       =   0.0000000000000E+00
(PID.TID 0000.0001) %MON trcstat_ptracer94_max        =   7.2242642740719E-06
(PID.TID 0000.0001) %MON trcstat_ptracer94_min        =   1.1449875060182E-37
(PID.TID 0000.0001) %MON trcstat_ptracer94_mean       =   2.1541290466743E-07
(PID.TID 0000.0001) %MON trcstat_ptracer94_sd         =   1.1293476836558E-06
(PID.TID 0000.0001) %MON trcstat_ptracer94_del2       =   0.0000000000000E+00
(PID.TID 0000.0001) %MON trcstat_ptracer95_max        =   7.2242642740703E-06
(PID.TID 0000.0001) %MON trcstat_ptracer95_min        =   1.1449875060182E-37
(PID.TID 0000.0001) %MON trcstat_ptracer95_mean       =   2.1544609961472E-07
(PID.TID 0000.0001) %MON trcstat_ptracer95_sd         =   1.1293752103960E-06
(PID.TID 0000.0001) %MON trcstat_ptracer95_del2       =   0.0000000000000E+00
(PID.TID 0000.0001) %MON trcstat_ptracer96_max        =   7.2242642740686E-06
(PID.TID 0000.0001) %MON trcstat_ptracer96_min        =   1.1449875060182E-37
(PID.TID 0000.0001) %MON trcstat_ptracer96_mean       =   2.1541360392173E-07
(PID.TID 0000.0001) %MON trcstat_ptracer96_sd         =   1.1293475972520E-06
(PID.TID 0000.0001) %MON trcstat_ptracer96_del2       =   0.0000000000000E+00
(PID.TID 0000.0001) %MON trcstat_ptracer97_max        =   7.2242642740695E-06
(PID.TID 0000.0001) %MON trcstat_ptracer97_min        =   1.1449875060182E-37
(PID.TID 0000.0001) %MON trcstat_ptracer97_mean       =   2.1541442991878E-07
(PID.TID 0000.0001) %MON trcstat_ptracer97_sd         =   1.1293475176672E-06
(PID.TID 0000.0001) %MON trcstat_ptracer97_del2       =   0.0000000000000E+00
(PID.TID 0000.0001) %MON trcstat_ptracer98_max        =   7.2242642740690E-06
(PID.TID 0000.0001) %MON trcstat_ptracer98_min        =   1.1449875060182E-37
(PID.TID 0000.0001) %MON trcstat_ptracer98_mean       =   2.1541290466734E-07
(PID.TID 0000.0001) %MON trcstat_ptracer98_sd         =   1.1293476836554E-06
(PID.TID 0000.0001) %MON trcstat_ptracer98_del2       =   0.0000000000000E+00
(PID.TID 0000.0001) %MON trcstat_ptracer99_max        =   7.4494450225883E-06
(PID.TID 0000.0001) %MON trcstat_ptracer99_min        =   1.4160604848342E-29
(PID.TID 0000.0001) %MON trcstat_ptracer99_mean       =   2.2198737218083E-07
(PID.TID 0000.0001) %MON trcstat_ptracer99_sd         =   1.1632114446505E-06
(PID.TID 0000.0001) %MON trcstat_ptracer99_del2       =   0.0000000000000E+00
(PID.TID 0000.0001) // =======================================================
(PID.TID 0000.0001) // End MONITOR ptracers field statistics
(PID.TID 0000.0001) // =======================================================
(PID.TID 0000.0001) %CHECKPOINT         4 ckptA
(PID.TID 0000.0001)   Seconds in section "ALL                    [THE_MODEL_MAIN]":
(PID.TID 0000.0001)           User time:  1.75173397
(PID.TID 0000.0001)         System time:  0.0949859994
(PID.TID 0000.0001)     Wall clock time:  1.85527086
(PID.TID 0000.0001)          No. starts: 1
(PID.TID 0000.0001)           No. stops: 1
(PID.TID 0000.0001)   Seconds in section "INITIALISE_FIXED       [THE_MODEL_MAIN]":
(PID.TID 0000.0001)           User time:  1.19181902
(PID.TID 0000.0001)         System time:  0.0329950007
(PID.TID 0000.0001)     Wall clock time:  1.22931194
(PID.TID 0000.0001)          No. starts: 1
(PID.TID 0000.0001)           No. stops: 1
(PID.TID 0000.0001)   Seconds in section "THE_MAIN_LOOP          [THE_MODEL_MAIN]":
(PID.TID 0000.0001)           User time:  0.559914947
(PID.TID 0000.0001)         System time:  0.0609909967
(PID.TID 0000.0001)     Wall clock time:  0.624866009
(PID.TID 0000.0001)          No. starts: 1
(PID.TID 0000.0001)           No. stops: 1
(PID.TID 0000.0001)   Seconds in section "INITIALISE_VARIA    [THE_MAIN_LOOP]":
(PID.TID 0000.0001)           User time:  0.170974016
(PID.TID 0000.0001)         System time:  0.0159979984
(PID.TID 0000.0001)     Wall clock time:  0.187153816
(PID.TID 0000.0001)          No. starts: 1
(PID.TID 0000.0001)           No. stops: 1
(PID.TID 0000.0001)   Seconds in section "MAIN LOOP           [THE_MAIN_LOOP]":
(PID.TID 0000.0001)           User time:  0.38894093
(PID.TID 0000.0001)         System time:  0.0449929982
(PID.TID 0000.0001)     Wall clock time:  0.437627077
(PID.TID 0000.0001)          No. starts: 1
(PID.TID 0000.0001)           No. stops: 1
(PID.TID 0000.0001)   Seconds in section "FORWARD_STEP        [THE_MAIN_LOOP]":
(PID.TID 0000.0001)           User time:  0.38894093
(PID.TID 0000.0001)         System time:  0.0449929982
(PID.TID 0000.0001)     Wall clock time:  0.437489748
(PID.TID 0000.0001)          No. starts: 4
(PID.TID 0000.0001)           No. stops: 4
(PID.TID 0000.0001)   Seconds in section "LOAD_FIELDS_DRIVER  [FORWARD_STEP]":
(PID.TID 0000.0001)           User time:  0.00100004673
(PID.TID 0000.0001)         System time:  0.000998999923
(PID.TID 0000.0001)     Wall clock time:  0.0015847683
(PID.TID 0000.0001)          No. starts: 4
(PID.TID 0000.0001)           No. stops: 4
(PID.TID 0000.0001)   Seconds in section "EXTERNAL_FLDS_LOAD [LOAD_FLDS_DRIVER]":
(PID.TID 0000.0001)           User time:  0.00100004673
(PID.TID 0000.0001)         System time:  0.000998999923
(PID.TID 0000.0001)     Wall clock time:  0.000769376755
(PID.TID 0000.0001)          No. starts: 4
(PID.TID 0000.0001)           No. stops: 4
(PID.TID 0000.0001)   Seconds in section "DO_ATMOSPHERIC_PHYS [FORWARD_STEP]":
(PID.TID 0000.0001)           User time:  0.000999927521
(PID.TID 0000.0001)         System time:  0.
(PID.TID 0000.0001)     Wall clock time:  0.000118970871
(PID.TID 0000.0001)          No. starts: 4
(PID.TID 0000.0001)           No. stops: 4
(PID.TID 0000.0001)   Seconds in section "DO_OCEANIC_PHYS     [FORWARD_STEP]":
(PID.TID 0000.0001)           User time:  0.
(PID.TID 0000.0001)         System time:  0.
(PID.TID 0000.0001)     Wall clock time:  0.000243902206
(PID.TID 0000.0001)          No. starts: 4
(PID.TID 0000.0001)           No. stops: 4
(PID.TID 0000.0001)   Seconds in section "GCHEM_CALC_TENDENCY [FORWARD_STEP]":
(PID.TID 0000.0001)           User time:  0.00199997425
(PID.TID 0000.0001)         System time:  0.
(PID.TID 0000.0001)     Wall clock time:  0.000119924545
(PID.TID 0000.0001)          No. starts: 4
(PID.TID 0000.0001)           No. stops: 4
(PID.TID 0000.0001)   Seconds in section "THERMODYNAMICS      [FORWARD_STEP]":
(PID.TID 0000.0001)           User time:  0.146977067
(PID.TID 0000.0001)         System time:  0.
(PID.TID 0000.0001)     Wall clock time:  0.148802042
(PID.TID 0000.0001)          No. starts: 4
(PID.TID 0000.0001)           No. stops: 4
(PID.TID 0000.0001)   Seconds in section "TRC_CORRECTION_STEP [FORWARD_STEP]":
(PID.TID 0000.0001)           User time:  0.00799882412
(PID.TID 0000.0001)         System time:  0.
(PID.TID 0000.0001)     Wall clock time:  0.00695800781
(PID.TID 0000.0001)          No. starts: 4
(PID.TID 0000.0001)           No. stops: 4
(PID.TID 0000.0001)   Seconds in section "GCHEM_FORCING_SEP  [FORWARD_STEP]":
(PID.TID 0000.0001)           User time:  0.0169970989
(PID.TID 0000.0001)         System time:  0.00100000203
(PID.TID 0000.0001)     Wall clock time:  0.0185422897
(PID.TID 0000.0001)          No. starts: 4
(PID.TID 0000.0001)           No. stops: 4
(PID.TID 0000.0001)   Seconds in section "BLOCKING_EXCHANGES  [FORWARD_STEP]":
(PID.TID 0000.0001)           User time:  0.0129990578
(PID.TID 0000.0001)         System time:  0.
(PID.TID 0000.0001)     Wall clock time:  0.0125420094
(PID.TID 0000.0001)          No. starts: 4
(PID.TID 0000.0001)           No. stops: 4
(PID.TID 0000.0001)   Seconds in section "DO_STATEVARS_TAVE   [FORWARD_STEP]":
(PID.TID 0000.0001)           User time:  0.000998973846
(PID.TID 0000.0001)         System time:  0.
(PID.TID 0000.0001)     Wall clock time:  0.00170874596
(PID.TID 0000.0001)          No. starts: 4
(PID.TID 0000.0001)           No. stops: 4
(PID.TID 0000.0001)   Seconds in section "MONITOR             [FORWARD_STEP]":
(PID.TID 0000.0001)           User time:  0.00600004196
(PID.TID 0000.0001)         System time:  0.
(PID.TID 0000.0001)     Wall clock time:  0.0115461349
(PID.TID 0000.0001)          No. starts: 4
(PID.TID 0000.0001)           No. stops: 4
(PID.TID 0000.0001)   Seconds in section "DO_THE_MODEL_IO     [FORWARD_STEP]":
(PID.TID 0000.0001)           User time:  0.176971912
(PID.TID 0000.0001)         System time:  0.00899900123
(PID.TID 0000.0001)     Wall clock time:  0.185449123
(PID.TID 0000.0001)          No. starts: 4
(PID.TID 0000.0001)           No. stops: 4
(PID.TID 0000.0001)   Seconds in section "DO_WRITE_PICKUP     [FORWARD_STEP]":
(PID.TID 0000.0001)           User time:  0.0149979591
(PID.TID 0000.0001)         System time:  0.0339949951
(PID.TID 0000.0001)     Wall clock time:  0.0484287739
(PID.TID 0000.0001)          No. starts: 4
(PID.TID 0000.0001)           No. stops: 4
(PID.TID 0000.0001) // ======================================================
(PID.TID 0000.0001) // Tile <-> Tile communication statistics
(PID.TID 0000.0001) // ======================================================
(PID.TID 0000.0001) // o Tile number: 000001
(PID.TID 0000.0001) //         No. X exchanges =              0
(PID.TID 0000.0001) //            Max. X spins =              0
(PID.TID 0000.0001) //            Min. X spins =     1000000000
(PID.TID 0000.0001) //          Total. X spins =              0
(PID.TID 0000.0001) //            Avg. X spins =       0.00E+00
(PID.TID 0000.0001) //         No. Y exchanges =              0
(PID.TID 0000.0001) //            Max. Y spins =              0
(PID.TID 0000.0001) //            Min. Y spins =     1000000000
(PID.TID 0000.0001) //          Total. Y spins =              0
(PID.TID 0000.0001) //            Avg. Y spins =       0.00E+00
(PID.TID 0000.0001) // o Thread number: 000001
(PID.TID 0000.0001) //            No. barriers =          18946
(PID.TID 0000.0001) //      Max. barrier spins =              1
(PID.TID 0000.0001) //      Min. barrier spins =              1
(PID.TID 0000.0001) //     Total barrier spins =          18946
(PID.TID 0000.0001) //      Avg. barrier spins =       1.00E+00
