(PID.TID 0000.0001) 
(PID.TID 0000.0001) // ======================================================
(PID.TID 0000.0001) //                      MITgcm UV
(PID.TID 0000.0001) //                      =========
(PID.TID 0000.0001) // ======================================================
(PID.TID 0000.0001) // execution environment starting up...
(PID.TID 0000.0001) 
(PID.TID 0000.0001) // MITgcmUV version:  checkpoint61
(PID.TID 0000.0001) // Build user:        jahn
(PID.TID 0000.0001) // Build host:        beagle.local
(PID.TID 0000.0001) // Build date:        Fri Aug 22 14:06:40 EDT 2008
(PID.TID 0000.0001) 
(PID.TID 0000.0001) // =======================================================
(PID.TID 0000.0001) // Execution Environment parameter file "eedata"
(PID.TID 0000.0001) // =======================================================
(PID.TID 0000.0001) ># Example "eedata" file
(PID.TID 0000.0001) ># Lines beginning "#" are comments
(PID.TID 0000.0001) ># nTx - No. threads per process in X
(PID.TID 0000.0001) ># nTy - No. threads per process in Y
(PID.TID 0000.0001) > &EEPARMS
(PID.TID 0000.0001) > nTx=1,nTy=1
(PID.TID 0000.0001) > /
(PID.TID 0000.0001) ># Note: Some systems use & as the
(PID.TID 0000.0001) ># namelist terminator. Other systems
(PID.TID 0000.0001) ># use a / character (as shown here).
(PID.TID 0000.0001) 
(PID.TID 0000.0001) // =======================================================
(PID.TID 0000.0001) // Computational Grid Specification ( see files "SIZE.h" )
(PID.TID 0000.0001) //                                  ( and "eedata"       )
(PID.TID 0000.0001) // =======================================================
(PID.TID 0000.0001)      nPx =    1 ; /* No. processes in X */
(PID.TID 0000.0001)      nPy =    1 ; /* No. processes in Y */
(PID.TID 0000.0001)      nSx =    1 ; /* No. tiles in X per process */
(PID.TID 0000.0001)      nSy =    1 ; /* No. tiles in Y per process */
(PID.TID 0000.0001)      sNx =    1 ; /* Tile size in X */
(PID.TID 0000.0001)      sNy =    1 ; /* Tile size in Y */
(PID.TID 0000.0001)      OLx =    2 ; /* Tile overlap distance in X */
(PID.TID 0000.0001)      OLy =    2 ; /* Tile overlap distance in Y */
(PID.TID 0000.0001)      nTx =    1 ; /* No. threads in X per process */
(PID.TID 0000.0001)      nTy =    1 ; /* No. threads in Y per process */
(PID.TID 0000.0001)       Nr =   35 ; /* No. levels in the vertical   */
(PID.TID 0000.0001)       nX =    1 ; /* Total domain size in X ( = nPx*nSx*sNx ) */
(PID.TID 0000.0001)       nY =    1 ; /* Total domain size in Y ( = nPy*nSy*sNy ) */
(PID.TID 0000.0001)   nTiles =    1 ; /* Total no. tiles per process ( = nSx*nSy ) */
(PID.TID 0000.0001)   nProcs =    1 ; /* Total no. processes ( = nPx*nPy ) */
(PID.TID 0000.0001) nThreads =    1 ; /* Total no. threads per process ( = nTx*nTy ) */
(PID.TID 0000.0001) usingMPI =    F ; /* Flag used to control whether MPI is in use */
(PID.TID 0000.0001)                   /*  note: To execute a program with MPI calls */
(PID.TID 0000.0001)                   /*  it must be launched appropriately e.g     */
(PID.TID 0000.0001)                   /*  "mpirun -np 64 ......"                    */
(PID.TID 0000.0001) useCoupler=   F ; /* Flag used to control communications with */
(PID.TID 0000.0001)                   /*  other model components, through a coupler */
(PID.TID 0000.0001) 
(PID.TID 0000.0001) // ======================================================
(PID.TID 0000.0001) // Mapping of tiles to threads
(PID.TID 0000.0001) // ======================================================
(PID.TID 0000.0001) // -o- Thread   1, tiles (   1:   1,   1:   1)
(PID.TID 0000.0001) 
(PID.TID 0000.0001) // ======================================================
(PID.TID 0000.0001) // Tile <-> Tile connectvity table
(PID.TID 0000.0001) // ======================================================
(PID.TID 0000.0001) // Tile number: 000001 (process no. = 000001)
(PID.TID 0000.0001) //        WEST: Tile = 000001, Process = 000001, Comm = put
(PID.TID 0000.0001) //                bi = 000001, bj = 000001
(PID.TID 0000.0001) //        EAST: Tile = 000001, Process = 000001, Comm = put
(PID.TID 0000.0001) //                bi = 000001, bj = 000001
(PID.TID 0000.0001) //       SOUTH: Tile = 000001, Process = 000001, Comm = put
(PID.TID 0000.0001) //                bi = 000001, bj = 000001
(PID.TID 0000.0001) //       NORTH: Tile = 000001, Process = 000001, Comm = put
(PID.TID 0000.0001) //                bi = 000001, bj = 000001
(PID.TID 0000.0001) 
(PID.TID 0000.0001) // =======================================================
(PID.TID 0000.0001) // Model parameter file "data"
(PID.TID 0000.0001) // =======================================================
(PID.TID 0000.0001) >#
(PID.TID 0000.0001) ># ******************************
(PID.TID 0000.0001) ># Model parameters
(PID.TID 0000.0001) ># Continuous equation parameters
(PID.TID 0000.0001) ># ******************************
(PID.TID 0000.0001) >&PARM01
(PID.TID 0000.0001) >tRef= 26.5, 26.1, 26., 25.5, 25.4, 24.9, 24.5, 24.0, 23.7,
(PID.TID 0000.0001) >      23.3, 23.1, 22.8, 22.5, 22.1, 21.6, 20.6, 19.5, 18.4,
(PID.TID 0000.0001) >      17.3, 16.6, 15.5, 14.6, 13.8, 13.1, 11.6, 10.1, 7.7,
(PID.TID 0000.0001) >      5.3, 4.1, 3.7, 3.7, 3.4, 3.0, 2.8, 2.6,
(PID.TID 0000.0001) >sRef= 35*35.00,
(PID.TID 0000.0001) >no_slip_sides=.false.,
(PID.TID 0000.0001) >no_slip_bottom=.TRUE.,
(PID.TID 0000.0001) >viscAz=0.e0,
(PID.TID 0000.0001) >viscAh=0.e0,
(PID.TID 0000.0001) >diffKhT=1.E2,
(PID.TID 0000.0001) >diffKzT=1.E-4,
(PID.TID 0000.0001) >diffKhS=0.D0,
(PID.TID 0000.0001) >diffKzS=0.D0,
(PID.TID 0000.0001) >beta=1.E-11,
(PID.TID 0000.0001) >tAlpha=2.E-4,
(PID.TID 0000.0001) >sBeta =7.4E-4,
(PID.TID 0000.0001) >gravity=9.81,
(PID.TID 0000.0001) >gBaro=9.81,
(PID.TID 0000.0001) >rigidLid=.TRUE.,
(PID.TID 0000.0001) >implicitFreeSurface=.false.,
(PID.TID 0000.0001) >eosType='JMD95Z',
(PID.TID 0000.0001) >saltStepping=.FALSE.,
(PID.TID 0000.0001) >tempStepping=.TRUE.,
(PID.TID 0000.0001) >tempAdvection=.TRUE.,
(PID.TID 0000.0001) >momStepping=.FALSE.,
(PID.TID 0000.0001) >implicitDiffusion=.true.,
(PID.TID 0000.0001) >implicitViscosity=.false.,
(PID.TID 0000.0001) >allowFreezing=.false.,
(PID.TID 0000.0001) >useSingleCpuIO=.TRUE.,
(PID.TID 0000.0001) >useCDscheme=.FALSE.,
(PID.TID 0000.0001) >tempAdvScheme = 3,
(PID.TID 0000.0001) >saltAdvScheme = 3,
(PID.TID 0000.0001) >/
(PID.TID 0000.0001) >
(PID.TID 0000.0001) ># **************************
(PID.TID 0000.0001) ># Elliptic solver parameters
(PID.TID 0000.0001) ># **************************
(PID.TID 0000.0001) >&PARM02
(PID.TID 0000.0001) >cg2dMaxIters=300,
(PID.TID 0000.0001) >cg2dTargetResidual=1.E-7,
(PID.TID 0000.0001) >/
(PID.TID 0000.0001) >
(PID.TID 0000.0001) ># ************************
(PID.TID 0000.0001) ># Time stepping parameters
(PID.TID 0000.0001) ># ************************
(PID.TID 0000.0001) >&PARM03
(PID.TID 0000.0001) > nIter0=0,
(PID.TID 0000.0001) >#nTimeSteps=86400,
(PID.TID 0000.0001) > nTimeSteps=4,
(PID.TID 0000.0001) > deltaTmom= 3600.,
(PID.TID 0000.0001) > deltaTtracer= 3600.,
(PID.TID 0000.0001) > deltaTClock = 3600.,
(PID.TID 0000.0001) > cAdjFreq    = -1.,
(PID.TID 0000.0001) > abEps=0.1,
(PID.TID 0000.0001) > pChkptFreq  = 31104000.0,
(PID.TID 0000.0001) > chkptFreq   = 31104000.0,
(PID.TID 0000.0001) > dumpFreq    = 31104000.0,
(PID.TID 0000.0001) > taveFreq    = 2592000.,
(PID.TID 0000.0001) >#monitorFreq = 2592000.,
(PID.TID 0000.0001) > monitorFreq = 1.,
(PID.TID 0000.0001) > tauThetaClimRelax=259200.,
(PID.TID 0000.0001) > tauSaltClimRelax=0.,
(PID.TID 0000.0001) > periodicExternalForcing=.TRUE.,
(PID.TID 0000.0001) > externForcingPeriod=2592000.,
(PID.TID 0000.0001) > externForcingCycle=31104000.,
(PID.TID 0000.0001) >/
(PID.TID 0000.0001) >
(PID.TID 0000.0001) ># *******************
(PID.TID 0000.0001) ># Gridding parameters
(PID.TID 0000.0001) ># *******************
(PID.TID 0000.0001) >&PARM04
(PID.TID 0000.0001) >usingCartesianGrid=.FALSE.,
(PID.TID 0000.0001) >usingSphericalPolarGrid=.TRUE.,
(PID.TID 0000.0001) >delX=1*1.E0,
(PID.TID 0000.0001) >delY=1*1.E0,
(PID.TID 0000.0001) >delZ=14*10, 5*15, 4*20, 2*50, 100, 2*150, 200, 300, 3*400, 2*500,
(PID.TID 0000.0001) >phimin=-18.,
(PID.TID 0000.0001) >thetamin=335,
(PID.TID 0000.0001) >/
(PID.TID 0000.0001) >
(PID.TID 0000.0001) ># **********
(PID.TID 0000.0001) ># Data Files
(PID.TID 0000.0001) ># **********
(PID.TID 0000.0001) >&PARM05
(PID.TID 0000.0001) >bathyFile=       '../input/input/bathyneg.bin',
(PID.TID 0000.0001) >hydrogThetaFile= '../input/input/loc1_temp_janprof.bin',
(PID.TID 0000.0001) >hydrogSaltFile=  '../input/input/salt_uniform.bin',
(PID.TID 0000.0001) >zonalWindFile=   '',
(PID.TID 0000.0001) >meridWindFile=   '',
(PID.TID 0000.0001) >thetaClimFile=   '../input/input/loc1_temp_monsurf.bin',
(PID.TID 0000.0001) >saltClimFile=    '',
(PID.TID 0000.0001) >surfQFile=       '',
(PID.TID 0000.0001) >EmPmRFile=       '',
(PID.TID 0000.0001) >/
(PID.TID 0000.0001) 
(PID.TID 0000.0001) S/R INI_PARMS ; starts to read PARM01
(PID.TID 0000.0001) S/R INI_PARMS ; read PARM01 : OK
(PID.TID 0000.0001) S/R INI_PARMS ; starts to read PARM02
(PID.TID 0000.0001) S/R INI_PARMS ; read PARM02 : OK
(PID.TID 0000.0001) S/R INI_PARMS ; starts to read PARM03
(PID.TID 0000.0001) S/R INI_PARMS ; read PARM03 : OK
(PID.TID 0000.0001) S/R INI_PARMS ; starts to read PARM04
(PID.TID 0000.0001) S/R INI_PARMS ; read PARM04 : OK
(PID.TID 0000.0001) S/R INI_PARMS ; starts to read PARM05
(PID.TID 0000.0001) S/R INI_PARMS ; read PARM05 : OK
(PID.TID 0000.0001)  PACKAGES_BOOT: opening data.pkg
(PID.TID 0000.0001)  OPEN_COPY_DATA_FILE: opening file data.pkg
(PID.TID 0000.0001) // =======================================================
(PID.TID 0000.0001) // Parameter file "data.pkg"
(PID.TID 0000.0001) // =======================================================
(PID.TID 0000.0001) ># Packages
(PID.TID 0000.0001) > &PACKAGES
(PID.TID 0000.0001) > usePTRACERS=.TRUE.
(PID.TID 0000.0001) > useGCHEM=.TRUE.,
(PID.TID 0000.0001) > useKPP=.FALSE.,
(PID.TID 0000.0001) > useMNC=.TRUE.,
(PID.TID 0000.0001) > /
(PID.TID 0000.0001) 
(PID.TID 0000.0001)  PACKAGES_BOOT: finished reading data.pkg
(PID.TID 0000.0001)  MNC_READPARMS: opening file 'data.mnc'
(PID.TID 0000.0001)  OPEN_COPY_DATA_FILE: opening file data.mnc
(PID.TID 0000.0001) // =======================================================
(PID.TID 0000.0001) // Parameter file "data.mnc"
(PID.TID 0000.0001) // =======================================================
(PID.TID 0000.0001) ># Example "data.mnc" file
(PID.TID 0000.0001) ># Lines beginning "#" are comments
(PID.TID 0000.0001) > &MNC_01
(PID.TID 0000.0001) ># mnc_echo_gvtypes=.FALSE.,
(PID.TID 0000.0001) ># mnc_use_indir=.FALSE.,
(PID.TID 0000.0001) > mnc_use_outdir=.TRUE.,
(PID.TID 0000.0001) > mnc_outdir_str='dar1d_',
(PID.TID 0000.0001) > mnc_outdir_date=.TRUE.,
(PID.TID 0000.0001) > monitor_mnc=.FALSE.,
(PID.TID 0000.0001) > snapshot_mnc=.TRUE.,
(PID.TID 0000.0001) > timeave_mnc=.TRUE.,
(PID.TID 0000.0001) > pickup_read_mnc=.FALSE.,
(PID.TID 0000.0001) > pickup_write_mnc=.FALSE.,
(PID.TID 0000.0001) > &
(PID.TID 0000.0001) ># Note: Some systems use & as the
(PID.TID 0000.0001) ># namelist terminator. Other systems
(PID.TID 0000.0001) ># use a / character.
(PID.TID 0000.0001) 
(PID.TID 0000.0001)  MNC_READPARMS: finished reading data.mnc
(PID.TID 0000.0001)  PTRACERS_READPARMS: opening data.ptracers
(PID.TID 0000.0001)  OPEN_COPY_DATA_FILE: opening file data.ptracers
(PID.TID 0000.0001) // =======================================================
(PID.TID 0000.0001) // Parameter file "data.ptracers"
(PID.TID 0000.0001) // =======================================================
(PID.TID 0000.0001) > &PTRACERS_PARM01
(PID.TID 0000.0001) > PTRACERS_numInUse=99,
(PID.TID 0000.0001) > PTRACERS_Iter0= 0,
(PID.TID 0000.0001) ># tracer 1 - phosphate
(PID.TID 0000.0001) > PTRACERS_names(1)='PO4',
(PID.TID 0000.0001) > PTRACERS_units(1)='mmol P/m^3',
(PID.TID 0000.0001) > PTRACERS_advScheme(1)=33,
(PID.TID 0000.0001) > PTRACERS_diffKh(1)=0.E3,
(PID.TID 0000.0001) > PTRACERS_diffKr(1)=1.E-5,
(PID.TID 0000.0001) > PTRACERS_useGMRedi(1)=.FALSE. ,
(PID.TID 0000.0001) > PTRACERS_useKPP(1)=.FALSE. ,
(PID.TID 0000.0001) > PTRACERS_initialFile(1)='../input/input/loc1_phos_janprof.bin',
(PID.TID 0000.0001) ># tracer 2 - nitrate
(PID.TID 0000.0001) > PTRACERS_names(2)='NO3',
(PID.TID 0000.0001) > PTRACERS_units(2)='mmol N/m^3',
(PID.TID 0000.0001) > PTRACERS_advScheme(2)=33,
(PID.TID 0000.0001) > PTRACERS_diffKh(2)=0.E3,
(PID.TID 0000.0001) > PTRACERS_diffKr(2)=1.E-5,
(PID.TID 0000.0001) > PTRACERS_useGMRedi(2)=.FALSE. ,
(PID.TID 0000.0001) > PTRACERS_useKPP(2)=.FALSE. ,
(PID.TID 0000.0001) > PTRACERS_initialFile(2)='../input/input/loc1_nitr_janprof.bin',
(PID.TID 0000.0001) ># tracer 3 - dissolved iron
(PID.TID 0000.0001) > PTRACERS_names(3)='FeT',
(PID.TID 0000.0001) > PTRACERS_units(3)='mmol Fe/m^3',
(PID.TID 0000.0001) > PTRACERS_advScheme(3)=33,
(PID.TID 0000.0001) > PTRACERS_diffKh(3)=0.E3,
(PID.TID 0000.0001) > PTRACERS_diffKr(3)=1.E-5,
(PID.TID 0000.0001) > PTRACERS_useGMRedi(3)=.FALSE. ,
(PID.TID 0000.0001) > PTRACERS_useKPP(3)=.FALSE. ,
(PID.TID 0000.0001) >#PTRACERS_initialFile(3)='../input/input/loc1_FeT_run83_janprof.bin',
(PID.TID 0000.0001) > PTRACERS_initialFile(3)='../input/input/fet_uniform.bin',
(PID.TID 0000.0001) ># tracer 4 - silicic acid
(PID.TID 0000.0001) > PTRACERS_names(4)='SiO2',
(PID.TID 0000.0001) > PTRACERS_units(4)='mmol Si/m^3',
(PID.TID 0000.0001) > PTRACERS_advScheme(4)=33,
(PID.TID 0000.0001) > PTRACERS_diffKh(4)=0.E3,
(PID.TID 0000.0001) > PTRACERS_diffKr(4)=1.E-5,
(PID.TID 0000.0001) > PTRACERS_useGMRedi(4)=.FALSE. ,
(PID.TID 0000.0001) > PTRACERS_useKPP(4)=.FALSE. ,
(PID.TID 0000.0001) > PTRACERS_initialFile(4)='../input/input/loc1_sil_janprof.bin',
(PID.TID 0000.0001) ># tracer 5 - DOP
(PID.TID 0000.0001) > PTRACERS_names(5)='DOP',
(PID.TID 0000.0001) > PTRACERS_units(5)='mmol P/m^3',
(PID.TID 0000.0001) > PTRACERS_advScheme(5)=33,
(PID.TID 0000.0001) > PTRACERS_diffKh(5)=0.E3,
(PID.TID 0000.0001) > PTRACERS_diffKr(5)=1.E-5,
(PID.TID 0000.0001) > PTRACERS_useGMRedi(5)=.FALSE. ,
(PID.TID 0000.0001) > PTRACERS_useKPP(5)=.FALSE.  ,
(PID.TID 0000.0001) > PTRACERS_initialFile(5)='../input/input/loc1_DOP_run83_janprof.bin',
(PID.TID 0000.0001) ># tracer 6 - DON
(PID.TID 0000.0001) > PTRACERS_names(6)='DON',
(PID.TID 0000.0001) > PTRACERS_units(6)='mmol N/m^3',
(PID.TID 0000.0001) > PTRACERS_advScheme(6)=33,
(PID.TID 0000.0001) > PTRACERS_diffKh(6)=0.E3,
(PID.TID 0000.0001) > PTRACERS_diffKr(6)=1.E-5,
(PID.TID 0000.0001) > PTRACERS_useGMRedi(6)=.FALSE. ,
(PID.TID 0000.0001) > PTRACERS_useKPP(6)=.FALSE.  ,
(PID.TID 0000.0001) > PTRACERS_initialFile(6)='../input/input/loc1_DON_run83_janprof.bin',
(PID.TID 0000.0001) ># tracer 7 - DOFe
(PID.TID 0000.0001) > PTRACERS_names(7)='DOFe',
(PID.TID 0000.0001) > PTRACERS_units(7)='mmol Fe/m^3',
(PID.TID 0000.0001) > PTRACERS_advScheme(7)=33,
(PID.TID 0000.0001) > PTRACERS_diffKh(7)=0.E3,
(PID.TID 0000.0001) > PTRACERS_diffKr(7)=1.E-5,
(PID.TID 0000.0001) > PTRACERS_useGMRedi(7)=.FALSE. ,
(PID.TID 0000.0001) > PTRACERS_useKPP(7)=.FALSE.  ,
(PID.TID 0000.0001) > PTRACERS_initialFile(7)='../input/input/loc1_DOFe_run83_janprof.bin',
(PID.TID 0000.0001) ># tracer 8 - ZOO1P
(PID.TID 0000.0001) > PTRACERS_names(8)='ZOO1P',
(PID.TID 0000.0001) > PTRACERS_units(8)='mmol P/m^3',
(PID.TID 0000.0001) > PTRACERS_advScheme(8)=33,
(PID.TID 0000.0001) > PTRACERS_diffKh(8)=0.E3,
(PID.TID 0000.0001) > PTRACERS_diffKr(8)=1.E-5,
(PID.TID 0000.0001) > PTRACERS_useGMRedi(8)=.FALSE. ,
(PID.TID 0000.0001) > PTRACERS_useKPP(8)=.FALSE.  ,
(PID.TID 0000.0001) > PTRACERS_initialFile(8)='../input/input/loc1_ZOOP_run83_janprof.bin',
(PID.TID 0000.0001) ># tracer 9 - ZOO1N
(PID.TID 0000.0001) > PTRACERS_names(9)='ZOO1N',
(PID.TID 0000.0001) > PTRACERS_units(9)='mmol N/m^3'
(PID.TID 0000.0001) > PTRACERS_advScheme(9)=33,
(PID.TID 0000.0001) > PTRACERS_diffKh(9)=0.E3,
(PID.TID 0000.0001) > PTRACERS_diffKr(9)=1.E-5,
(PID.TID 0000.0001) > PTRACERS_useGMRedi(9)=.FALSE. ,
(PID.TID 0000.0001) > PTRACERS_useKPP(9)=.FALSE.  ,
(PID.TID 0000.0001) > PTRACERS_initialFile(9)='../input/input/loc1_ZOON_run83_janprof.bin',
(PID.TID 0000.0001) ># tracer 10 - ZOO1Fe
(PID.TID 0000.0001) > PTRACERS_names(10)='ZOO1Fe',
(PID.TID 0000.0001) > PTRACERS_units(10)='mmol Fe/m^3'
(PID.TID 0000.0001) > PTRACERS_advScheme(10)=33,
(PID.TID 0000.0001) > PTRACERS_diffKh(10)=0.E3,
(PID.TID 0000.0001) > PTRACERS_diffKr(10)=1.E-5,
(PID.TID 0000.0001) > PTRACERS_useGMRedi(10)=.FALSE. ,
(PID.TID 0000.0001) > PTRACERS_useKPP(10)=.FALSE.  ,
(PID.TID 0000.0001) > PTRACERS_initialFile(10)='../input/input/loc1_ZOOFe_run83_janprof.bin',
(PID.TID 0000.0001) ># tracer 11 - ZOO1Si
(PID.TID 0000.0001) > PTRACERS_names(11)='ZOO1Si',
(PID.TID 0000.0001) > PTRACERS_units(11)='mmol Si/m^3'
(PID.TID 0000.0001) > PTRACERS_advScheme(11)=33,
(PID.TID 0000.0001) > PTRACERS_diffKh(11)=0.E3,
(PID.TID 0000.0001) > PTRACERS_diffKr(11)=1.E-5,
(PID.TID 0000.0001) > PTRACERS_useGMRedi(11)=.FALSE. ,
(PID.TID 0000.0001) > PTRACERS_useKPP(11)=.FALSE.  ,
(PID.TID 0000.0001) > PTRACERS_initialFile(11)='../input/input/loc1_ZOOSi_run83_janprof.bin',
(PID.TID 0000.0001) ># tracer 12 - ZOO2P
(PID.TID 0000.0001) > PTRACERS_names(12)='ZOO2P',
(PID.TID 0000.0001) > PTRACERS_units(12)='mmol P/m^3',
(PID.TID 0000.0001) > PTRACERS_advScheme(12)=33,
(PID.TID 0000.0001) > PTRACERS_diffKh(12)=0.E3,
(PID.TID 0000.0001) > PTRACERS_diffKr(12)=1.E-5,
(PID.TID 0000.0001) > PTRACERS_useGMRedi(12)=.FALSE. ,
(PID.TID 0000.0001) > PTRACERS_useKPP(12)=.FALSE.  ,
(PID.TID 0000.0001) > PTRACERS_initialFile(12)='../input/input/loc1_ZOOP_run83_janprof.bin',
(PID.TID 0000.0001) ># tracer 13 - ZOO2N
(PID.TID 0000.0001) > PTRACERS_names(13)='ZOO2N',
(PID.TID 0000.0001) > PTRACERS_units(13)='mmol N/m^3'
(PID.TID 0000.0001) > PTRACERS_advScheme(13)=33,
(PID.TID 0000.0001) > PTRACERS_diffKh(13)=0.E3,
(PID.TID 0000.0001) > PTRACERS_diffKr(13)=1.E-5,
(PID.TID 0000.0001) > PTRACERS_useGMRedi(13)=.FALSE. ,
(PID.TID 0000.0001) > PTRACERS_useKPP(13)=.FALSE.  ,
(PID.TID 0000.0001) > PTRACERS_initialFile(13)='../input/input/loc1_ZOON_run83_janprof.bin',
(PID.TID 0000.0001) ># tracer 14 - ZOO2Fe
(PID.TID 0000.0001) > PTRACERS_names(14)='ZOO2Fe',
(PID.TID 0000.0001) > PTRACERS_units(14)='mmol Fe/m^3'
(PID.TID 0000.0001) > PTRACERS_advScheme(14)=33,
(PID.TID 0000.0001) > PTRACERS_diffKh(14)=0.E3,
(PID.TID 0000.0001) > PTRACERS_diffKr(14)=1.E-5,
(PID.TID 0000.0001) > PTRACERS_useGMRedi(14)=.FALSE. ,
(PID.TID 0000.0001) > PTRACERS_useKPP(14)=.FALSE.  ,
(PID.TID 0000.0001) > PTRACERS_initialFile(14)='../input/input/loc1_ZOOFe_run83_janprof.bin',
(PID.TID 0000.0001) ># tracer 15 - ZOO2Si
(PID.TID 0000.0001) > PTRACERS_names(15)='ZOO2Si',
(PID.TID 0000.0001) > PTRACERS_units(15)='mmol Si/m^3'
(PID.TID 0000.0001) > PTRACERS_advScheme(15)=33,
(PID.TID 0000.0001) > PTRACERS_diffKh(15)=0.E3,
(PID.TID 0000.0001) > PTRACERS_diffKr(15)=1.E-5,
(PID.TID 0000.0001) > PTRACERS_useGMRedi(15)=.FALSE. ,
(PID.TID 0000.0001) > PTRACERS_useKPP(15)=.FALSE.  ,
(PID.TID 0000.0001) > PTRACERS_initialFile(15)='../input/input/loc1_ZOOSi_run83_janprof.bin',
(PID.TID 0000.0001) ># tracer 16 - POP
(PID.TID 0000.0001) > PTRACERS_names(16)='POP',
(PID.TID 0000.0001) > PTRACERS_units(16)='mmol P/m^3',
(PID.TID 0000.0001) > PTRACERS_advScheme(16)=33,
(PID.TID 0000.0001) > PTRACERS_diffKh(16)=0.E3,
(PID.TID 0000.0001) > PTRACERS_diffKr(16)=1.E-5,
(PID.TID 0000.0001) > PTRACERS_useGMRedi(16)=.FALSE. ,
(PID.TID 0000.0001) > PTRACERS_useKPP(16)=.FALSE.  ,
(PID.TID 0000.0001) > PTRACERS_initialFile(16)='../input/input/loc1_POP_run83_janprof.bin',
(PID.TID 0000.0001) ># tracer 17 - PON
(PID.TID 0000.0001) > PTRACERS_names(17)='PON',
(PID.TID 0000.0001) > PTRACERS_units(17)='mmol N/m^3',
(PID.TID 0000.0001) > PTRACERS_advScheme(17)=33,
(PID.TID 0000.0001) > PTRACERS_diffKh(17)=0.E3,
(PID.TID 0000.0001) > PTRACERS_diffKr(17)=1.E-5,
(PID.TID 0000.0001) > PTRACERS_useGMRedi(17)=.FALSE. ,
(PID.TID 0000.0001) > PTRACERS_useKPP(17)=.FALSE.  ,
(PID.TID 0000.0001) > PTRACERS_initialFile(17)='../input/input/loc1_PON_run83_janprof.bin',
(PID.TID 0000.0001) ># tracer 18 - POFe
(PID.TID 0000.0001) > PTRACERS_names(18)='POFe',
(PID.TID 0000.0001) > PTRACERS_units(18)='mmol Fe/m^3'
(PID.TID 0000.0001) > PTRACERS_advScheme(18)=33,
(PID.TID 0000.0001) > PTRACERS_diffKh(18)=0.E3,
(PID.TID 0000.0001) > PTRACERS_diffKr(18)=1.E-5,
(PID.TID 0000.0001) > PTRACERS_useGMRedi(18)=.FALSE. ,
(PID.TID 0000.0001) > PTRACERS_useKPP(18)=.FALSE.  ,
(PID.TID 0000.0001) > PTRACERS_initialFile(18)='../input/input/loc1_POFe_run83_janprof.bin',
(PID.TID 0000.0001) ># tracer 19 - POSi
(PID.TID 0000.0001) > PTRACERS_names(19)='POSi',
(PID.TID 0000.0001) > PTRACERS_units(19)='mmol Si/m^3'
(PID.TID 0000.0001) > PTRACERS_advScheme(19)=33,
(PID.TID 0000.0001) > PTRACERS_diffKh(19)=0.E3,
(PID.TID 0000.0001) > PTRACERS_diffKr(19)=1.E-5,
(PID.TID 0000.0001) > PTRACERS_useGMRedi(19)=.FALSE. ,
(PID.TID 0000.0001) > PTRACERS_useKPP(19)=.FALSE.  ,
(PID.TID 0000.0001) > PTRACERS_initialFile(19)='../input/input/loc1_POSi_run83_janprof.bin',
(PID.TID 0000.0001) ># tracer 20 - NH4
(PID.TID 0000.0001) > PTRACERS_names(20)='NH4',
(PID.TID 0000.0001) > PTRACERS_units(20)='mmol N/m^3'
(PID.TID 0000.0001) > PTRACERS_advScheme(20)=33,
(PID.TID 0000.0001) > PTRACERS_diffKh(20)=0.E3,
(PID.TID 0000.0001) > PTRACERS_diffKr(20)=1.E-5,
(PID.TID 0000.0001) > PTRACERS_useGMRedi(20)=.FALSE. ,
(PID.TID 0000.0001) > PTRACERS_useKPP(20)=.FALSE.  ,
(PID.TID 0000.0001) > PTRACERS_initialFile(20)='../input/input/loc1_NH4_run83_janprof.bin',
(PID.TID 0000.0001) ># tracer 21 - NO2
(PID.TID 0000.0001) > PTRACERS_names(21)='NO2',
(PID.TID 0000.0001) > PTRACERS_units(21)='mmol N/m^3'
(PID.TID 0000.0001) > PTRACERS_advScheme(21)=33,
(PID.TID 0000.0001) > PTRACERS_diffKh(21)=0.E3,
(PID.TID 0000.0001) > PTRACERS_diffKr(21)=1.E-5,
(PID.TID 0000.0001) > PTRACERS_useGMRedi(21)=.FALSE. ,
(PID.TID 0000.0001) > PTRACERS_useKPP(21)=.FALSE.  ,
(PID.TID 0000.0001) > PTRACERS_initialFile(21)='../input/input/loc1_NO2_run83_janprof.bin',
(PID.TID 0000.0001) ># tracer 22 - PHYT01
(PID.TID 0000.0001) > PTRACERS_names(22)='Phy1',
(PID.TID 0000.0001) > PTRACERS_units(22)='mmol P/m^3'
(PID.TID 0000.0001) > PTRACERS_advScheme(22)=33,
(PID.TID 0000.0001) > PTRACERS_diffKh(22)=0.E3,
(PID.TID 0000.0001) > PTRACERS_diffKr(22)=1.E-5,
(PID.TID 0000.0001) > PTRACERS_useGMRedi(22)=.FALSE. ,
(PID.TID 0000.0001) > PTRACERS_useKPP(22)=.FALSE.  ,
(PID.TID 0000.0001) > PTRACERS_initialFile(22)='../input/input/loc1_biomass_run83_janprof.bin',
(PID.TID 0000.0001) ># tracer 23 - PHYT02
(PID.TID 0000.0001) > PTRACERS_names(23)='Phy2',
(PID.TID 0000.0001) > PTRACERS_units(23)='mmol P/m^3'
(PID.TID 0000.0001) > PTRACERS_advScheme(23)=33,
(PID.TID 0000.0001) > PTRACERS_diffKh(23)=0.E3,
(PID.TID 0000.0001) > PTRACERS_diffKr(23)=1.E-5,
(PID.TID 0000.0001) > PTRACERS_useGMRedi(23)=.FALSE. ,
(PID.TID 0000.0001) > PTRACERS_useKPP(23)=.FALSE.  ,
(PID.TID 0000.0001) > PTRACERS_initialFile(23)='../input/input/loc1_biomass_run83_janprof.bin',
(PID.TID 0000.0001) ># tracer 24 - PHYT03
(PID.TID 0000.0001) > PTRACERS_names(24)='Phy3',
(PID.TID 0000.0001) > PTRACERS_units(24)='mmol P/m^3'
(PID.TID 0000.0001) > PTRACERS_advScheme(24)=33,
(PID.TID 0000.0001) > PTRACERS_diffKh(24)=0.E3,
(PID.TID 0000.0001) > PTRACERS_diffKr(24)=1.E-5,
(PID.TID 0000.0001) > PTRACERS_useGMRedi(24)=.FALSE. ,
(PID.TID 0000.0001) > PTRACERS_useKPP(24)=.FALSE.  ,
(PID.TID 0000.0001) > PTRACERS_initialFile(24)='../input/input/loc1_biomass_run83_janprof.bin',
(PID.TID 0000.0001) ># tracer 25 - PHYT04
(PID.TID 0000.0001) > PTRACERS_names(25)='Phy4',
(PID.TID 0000.0001) > PTRACERS_units(25)='mmol P/m^3'
(PID.TID 0000.0001) > PTRACERS_advScheme(25)=33,
(PID.TID 0000.0001) > PTRACERS_diffKh(25)=0.E3,
(PID.TID 0000.0001) > PTRACERS_diffKr(25)=1.E-5,
(PID.TID 0000.0001) > PTRACERS_useGMRedi(25)=.FALSE. ,
(PID.TID 0000.0001) > PTRACERS_useKPP(25)=.FALSE.  ,
(PID.TID 0000.0001) > PTRACERS_initialFile(25)='../input/input/loc1_biomass_run83_janprof.bin',
(PID.TID 0000.0001) ># tracer 26 - PHYT05
(PID.TID 0000.0001) > PTRACERS_names(26)='Phy5',
(PID.TID 0000.0001) > PTRACERS_units(26)='mmol P/m^3'
(PID.TID 0000.0001) > PTRACERS_advScheme(26)=33,
(PID.TID 0000.0001) > PTRACERS_diffKh(26)=0.E3,
(PID.TID 0000.0001) > PTRACERS_diffKr(26)=1.E-5,
(PID.TID 0000.0001) > PTRACERS_useGMRedi(26)=.FALSE. ,
(PID.TID 0000.0001) > PTRACERS_useKPP(26)=.FALSE.  ,
(PID.TID 0000.0001) > PTRACERS_initialFile(26)='../input/input/loc1_biomass_run83_janprof.bin',
(PID.TID 0000.0001) ># tracer 27 - PHYT06
(PID.TID 0000.0001) > PTRACERS_names(27)='Phy6',
(PID.TID 0000.0001) > PTRACERS_units(27)='mmol P/m^3'
(PID.TID 0000.0001) > PTRACERS_advScheme(27)=33,
(PID.TID 0000.0001) > PTRACERS_diffKh(27)=0.E3,
(PID.TID 0000.0001) > PTRACERS_diffKr(27)=1.E-5,
(PID.TID 0000.0001) > PTRACERS_useGMRedi(27)=.FALSE. ,
(PID.TID 0000.0001) > PTRACERS_useKPP(27)=.FALSE.  ,
(PID.TID 0000.0001) > PTRACERS_initialFile(27)='../input/input/loc1_biomass_run83_janprof.bin',
(PID.TID 0000.0001) ># tracer 28 - PHYT07
(PID.TID 0000.0001) > PTRACERS_names(28)='Phy7',
(PID.TID 0000.0001) > PTRACERS_units(28)='mmol P/m^3'
(PID.TID 0000.0001) > PTRACERS_advScheme(28)=33,
(PID.TID 0000.0001) > PTRACERS_diffKh(28)=0.E3,
(PID.TID 0000.0001) > PTRACERS_diffKr(28)=1.E-5,
(PID.TID 0000.0001) > PTRACERS_useGMRedi(28)=.FALSE. ,
(PID.TID 0000.0001) > PTRACERS_useKPP(28)=.FALSE.  ,
(PID.TID 0000.0001) > PTRACERS_initialFile(28)='../input/input/loc1_biomass_run83_janprof.bin',
(PID.TID 0000.0001) ># tracer 29 - PHYT08
(PID.TID 0000.0001) > PTRACERS_names(29)='Phy8',
(PID.TID 0000.0001) > PTRACERS_units(29)='mmol P/m^3'
(PID.TID 0000.0001) > PTRACERS_advScheme(29)=33,
(PID.TID 0000.0001) > PTRACERS_diffKh(29)=0.E3,
(PID.TID 0000.0001) > PTRACERS_diffKr(29)=1.E-5,
(PID.TID 0000.0001) > PTRACERS_useGMRedi(29)=.FALSE. ,
(PID.TID 0000.0001) > PTRACERS_useKPP(29)=.FALSE.  ,
(PID.TID 0000.0001) > PTRACERS_initialFile(29)='../input/input/loc1_biomass_run83_janprof.bin',
(PID.TID 0000.0001) ># tracer 30 - PHYT09
(PID.TID 0000.0001) > PTRACERS_names(30)='Phy9',
(PID.TID 0000.0001) > PTRACERS_units(30)='mmol P/m^3'
(PID.TID 0000.0001) > PTRACERS_advScheme(30)=33,
(PID.TID 0000.0001) > PTRACERS_diffKh(30)=0.E3,
(PID.TID 0000.0001) > PTRACERS_diffKr(30)=1.E-5,
(PID.TID 0000.0001) > PTRACERS_useGMRedi(30)=.FALSE. ,
(PID.TID 0000.0001) > PTRACERS_useKPP(30)=.FALSE.  ,
(PID.TID 0000.0001) > PTRACERS_initialFile(30)='../input/input/loc1_biomass_run83_janprof.bin',
(PID.TID 0000.0001) ># tracer 31 - PHYT10
(PID.TID 0000.0001) > PTRACERS_names(31)='Phy10',
(PID.TID 0000.0001) > PTRACERS_units(31)='mmol P/m^3'
(PID.TID 0000.0001) > PTRACERS_advScheme(31)=33,
(PID.TID 0000.0001) > PTRACERS_diffKh(31)=0.E3,
(PID.TID 0000.0001) > PTRACERS_diffKr(31)=1.E-5,
(PID.TID 0000.0001) > PTRACERS_useGMRedi(31)=.FALSE. ,
(PID.TID 0000.0001) > PTRACERS_useKPP(31)=.FALSE.  ,
(PID.TID 0000.0001) > PTRACERS_initialFile(31)='../input/input/loc1_biomass_run83_janprof.bin',
(PID.TID 0000.0001) ># tracer 32 - PHYT11
(PID.TID 0000.0001) > PTRACERS_names(32)='Phy11',
(PID.TID 0000.0001) > PTRACERS_units(32)='mmol P/m^3'
(PID.TID 0000.0001) > PTRACERS_advScheme(32)=33,
(PID.TID 0000.0001) > PTRACERS_diffKh(32)=0.E3,
(PID.TID 0000.0001) > PTRACERS_diffKr(32)=1.E-5,
(PID.TID 0000.0001) > PTRACERS_useGMRedi(32)=.FALSE. ,
(PID.TID 0000.0001) > PTRACERS_useKPP(32)=.FALSE.  ,
(PID.TID 0000.0001) > PTRACERS_initialFile(32)='../input/input/loc1_biomass_run83_janprof.bin',
(PID.TID 0000.0001) ># tracer 0 - PHYT12
(PID.TID 0000.0001) > PTRACERS_names(33)='Phy12',
(PID.TID 0000.0001) > PTRACERS_units(33)='mmol P/m^3'
(PID.TID 0000.0001) > PTRACERS_advScheme(33)=33,
(PID.TID 0000.0001) > PTRACERS_diffKh(33)=0.E3,
(PID.TID 0000.0001) > PTRACERS_diffKr(33)=1.E-5,
(PID.TID 0000.0001) > PTRACERS_useGMRedi(33)=.FALSE. ,
(PID.TID 0000.0001) > PTRACERS_useKPP(33)=.FALSE.  ,
(PID.TID 0000.0001) > PTRACERS_initialFile(33)='../input/input/loc1_biomass_run83_janprof.bin',
(PID.TID 0000.0001) ># tracer 34 - PHYT13
(PID.TID 0000.0001) > PTRACERS_names(34)='Phy13',
(PID.TID 0000.0001) > PTRACERS_units(34)='mmol P/m^3'
(PID.TID 0000.0001) > PTRACERS_advScheme(34)=33,
(PID.TID 0000.0001) > PTRACERS_diffKh(34)=0.E3,
(PID.TID 0000.0001) > PTRACERS_diffKr(34)=1.E-5,
(PID.TID 0000.0001) > PTRACERS_useGMRedi(34)=.FALSE. ,
(PID.TID 0000.0001) > PTRACERS_useKPP(34)=.FALSE.  ,
(PID.TID 0000.0001) > PTRACERS_initialFile(34)='../input/input/loc1_biomass_run83_janprof.bin',
(PID.TID 0000.0001) ># tracer 35 - PHYT14
(PID.TID 0000.0001) > PTRACERS_names(35)='Phy14',
(PID.TID 0000.0001) > PTRACERS_units(35)='mmol P/m^3'
(PID.TID 0000.0001) > PTRACERS_advScheme(35)=33,
(PID.TID 0000.0001) > PTRACERS_diffKh(35)=0.E3,
(PID.TID 0000.0001) > PTRACERS_diffKr(35)=1.E-5,
(PID.TID 0000.0001) > PTRACERS_useGMRedi(35)=.FALSE. ,
(PID.TID 0000.0001) > PTRACERS_useKPP(35)=.FALSE.  ,
(PID.TID 0000.0001) > PTRACERS_initialFile(35)='../input/input/loc1_biomass_run83_janprof.bin',
(PID.TID 0000.0001) ># tracer 36 - PHYT15
(PID.TID 0000.0001) > PTRACERS_names(36)='Phy15',
(PID.TID 0000.0001) > PTRACERS_units(36)='mmol P/m^3'
(PID.TID 0000.0001) > PTRACERS_advScheme(36)=33,
(PID.TID 0000.0001) > PTRACERS_diffKh(36)=0.E3,
(PID.TID 0000.0001) > PTRACERS_diffKr(36)=1.E-5,
(PID.TID 0000.0001) > PTRACERS_useGMRedi(36)=.FALSE. ,
(PID.TID 0000.0001) > PTRACERS_useKPP(36)=.FALSE.  ,
(PID.TID 0000.0001) > PTRACERS_initialFile(36)='../input/input/loc1_biomass_run83_janprof.bin',
(PID.TID 0000.0001) ># tracer 37 - PHYT16
(PID.TID 0000.0001) > PTRACERS_names(37)='Phy16',
(PID.TID 0000.0001) > PTRACERS_units(37)='mmol P/m^3'
(PID.TID 0000.0001) > PTRACERS_advScheme(37)=33,
(PID.TID 0000.0001) > PTRACERS_diffKh(37)=0.E3,
(PID.TID 0000.0001) > PTRACERS_diffKr(37)=1.E-5,
(PID.TID 0000.0001) > PTRACERS_useGMRedi(37)=.FALSE. ,
(PID.TID 0000.0001) > PTRACERS_useKPP(37)=.FALSE.  ,
(PID.TID 0000.0001) > PTRACERS_initialFile(37)='../input/input/loc1_biomass_run83_janprof.bin',
(PID.TID 0000.0001) ># tracer 38 - PHYT17
(PID.TID 0000.0001) > PTRACERS_names(38)='Phy17',
(PID.TID 0000.0001) > PTRACERS_units(38)='mmol P/m^3'
(PID.TID 0000.0001) > PTRACERS_advScheme(38)=33,
(PID.TID 0000.0001) > PTRACERS_diffKh(38)=0.E3,
(PID.TID 0000.0001) > PTRACERS_diffKr(38)=1.E-5,
(PID.TID 0000.0001) > PTRACERS_useGMRedi(38)=.FALSE. ,
(PID.TID 0000.0001) > PTRACERS_useKPP(38)=.FALSE.  ,
(PID.TID 0000.0001) > PTRACERS_initialFile(38)='../input/input/loc1_biomass_run83_janprof.bin',
(PID.TID 0000.0001) ># tracer 39 - PHYT18
(PID.TID 0000.0001) > PTRACERS_names(39)='Phy18',
(PID.TID 0000.0001) > PTRACERS_units(39)='mmol P/m^3'
(PID.TID 0000.0001) > PTRACERS_advScheme(39)=33,
(PID.TID 0000.0001) > PTRACERS_diffKh(39)=0.E3,
(PID.TID 0000.0001) > PTRACERS_diffKr(39)=1.E-5,
(PID.TID 0000.0001) > PTRACERS_useGMRedi(39)=.FALSE. ,
(PID.TID 0000.0001) > PTRACERS_useKPP(39)=.FALSE.  ,
(PID.TID 0000.0001) > PTRACERS_initialFile(39)='../input/input/loc1_biomass_run83_janprof.bin',
(PID.TID 0000.0001) ># tracer 40 - PHYT19
(PID.TID 0000.0001) > PTRACERS_names(40)='Phy19',
(PID.TID 0000.0001) > PTRACERS_units(40)='mmol P/m^3'
(PID.TID 0000.0001) > PTRACERS_advScheme(40)=33,
(PID.TID 0000.0001) > PTRACERS_diffKh(40)=0.E3,
(PID.TID 0000.0001) > PTRACERS_diffKr(40)=1.E-5,
(PID.TID 0000.0001) > PTRACERS_useGMRedi(40)=.FALSE. ,
(PID.TID 0000.0001) > PTRACERS_useKPP(40)=.FALSE.  ,
(PID.TID 0000.0001) > PTRACERS_initialFile(40)='../input/input/loc1_biomass_run83_janprof.bin',
(PID.TID 0000.0001) ># tracer 41 - PHYT20
(PID.TID 0000.0001) > PTRACERS_names(41)='Phy20',
(PID.TID 0000.0001) > PTRACERS_units(41)='mmol P/m^3'
(PID.TID 0000.0001) > PTRACERS_advScheme(41)=33,
(PID.TID 0000.0001) > PTRACERS_diffKh(41)=0.E3,
(PID.TID 0000.0001) > PTRACERS_diffKr(41)=1.E-5,
(PID.TID 0000.0001) > PTRACERS_useGMRedi(41)=.FALSE. ,
(PID.TID 0000.0001) > PTRACERS_useKPP(41)=.FALSE.  ,
(PID.TID 0000.0001) > PTRACERS_initialFile(41)='../input/input/loc1_biomass_run83_janprof.bin',
(PID.TID 0000.0001) ># tracer 42 - PHYT21
(PID.TID 0000.0001) > PTRACERS_names(42)='Phy21',
(PID.TID 0000.0001) > PTRACERS_units(42)='mmol P/m^3'
(PID.TID 0000.0001) > PTRACERS_advScheme(42)=33,
(PID.TID 0000.0001) > PTRACERS_diffKh(42)=0.E3,
(PID.TID 0000.0001) > PTRACERS_diffKr(42)=1.E-5,
(PID.TID 0000.0001) > PTRACERS_useGMRedi(42)=.FALSE. ,
(PID.TID 0000.0001) > PTRACERS_useKPP(42)=.FALSE.  ,
(PID.TID 0000.0001) > PTRACERS_initialFile(42)='../input/input/loc1_biomass_run83_janprof.bin',
(PID.TID 0000.0001) ># tracer 43 - PHYT22
(PID.TID 0000.0001) > PTRACERS_names(43)='Phy22',
(PID.TID 0000.0001) > PTRACERS_units(43)='mmol P/m^3'
(PID.TID 0000.0001) > PTRACERS_advScheme(43)=33,
(PID.TID 0000.0001) > PTRACERS_diffKh(43)=0.E3,
(PID.TID 0000.0001) > PTRACERS_diffKr(43)=1.E-5,
(PID.TID 0000.0001) > PTRACERS_useGMRedi(43)=.FALSE. ,
(PID.TID 0000.0001) > PTRACERS_useKPP(43)=.FALSE.  ,
(PID.TID 0000.0001) > PTRACERS_initialFile(43)='../input/input/loc1_biomass_run83_janprof.bin',
(PID.TID 0000.0001) ># tracer 44 - PHYT23
(PID.TID 0000.0001) > PTRACERS_names(44)='Phy23',
(PID.TID 0000.0001) > PTRACERS_units(44)='mmol P/m^3'
(PID.TID 0000.0001) > PTRACERS_advScheme(44)=33,
(PID.TID 0000.0001) > PTRACERS_diffKh(44)=0.E3,
(PID.TID 0000.0001) > PTRACERS_diffKr(44)=1.E-5,
(PID.TID 0000.0001) > PTRACERS_useGMRedi(44)=.FALSE. ,
(PID.TID 0000.0001) > PTRACERS_useKPP(44)=.FALSE.  ,
(PID.TID 0000.0001) > PTRACERS_initialFile(44)='../input/input/loc1_biomass_run83_janprof.bin',
(PID.TID 0000.0001) ># tracer 45 - PHYT24
(PID.TID 0000.0001) > PTRACERS_names(45)='Phy24',
(PID.TID 0000.0001) > PTRACERS_units(45)='mmol P/m^3'
(PID.TID 0000.0001) > PTRACERS_advScheme(45)=33,
(PID.TID 0000.0001) > PTRACERS_diffKh(45)=0.E3,
(PID.TID 0000.0001) > PTRACERS_diffKr(45)=1.E-5,
(PID.TID 0000.0001) > PTRACERS_useGMRedi(45)=.FALSE. ,
(PID.TID 0000.0001) > PTRACERS_useKPP(45)=.FALSE.  ,
(PID.TID 0000.0001) > PTRACERS_initialFile(45)='../input/input/loc1_biomass_run83_janprof.bin',
(PID.TID 0000.0001) ># tracer 46 - PHYT25
(PID.TID 0000.0001) > PTRACERS_names(46)='Phy25',
(PID.TID 0000.0001) > PTRACERS_units(46)='mmol P/m^3'
(PID.TID 0000.0001) > PTRACERS_advScheme(46)=33,
(PID.TID 0000.0001) > PTRACERS_diffKh(46)=0.E3,
(PID.TID 0000.0001) > PTRACERS_diffKr(46)=1.E-5,
(PID.TID 0000.0001) > PTRACERS_useGMRedi(46)=.FALSE. ,
(PID.TID 0000.0001) > PTRACERS_useKPP(46)=.FALSE.  ,
(PID.TID 0000.0001) > PTRACERS_initialFile(46)='../input/input/loc1_biomass_run83_janprof.bin',
(PID.TID 0000.0001) ># tracer 47 - PHYT26
(PID.TID 0000.0001) > PTRACERS_names(47)='Phy26',
(PID.TID 0000.0001) > PTRACERS_units(47)='mmol P/m^3'
(PID.TID 0000.0001) > PTRACERS_advScheme(47)=33,
(PID.TID 0000.0001) > PTRACERS_diffKh(47)=0.E3,
(PID.TID 0000.0001) > PTRACERS_diffKr(47)=1.E-5,
(PID.TID 0000.0001) > PTRACERS_useGMRedi(47)=.FALSE. ,
(PID.TID 0000.0001) > PTRACERS_useKPP(47)=.FALSE.  ,
(PID.TID 0000.0001) > PTRACERS_initialFile(47)='../input/input/loc1_biomass_run83_janprof.bin',
(PID.TID 0000.0001) ># tracer 48 - PHYT27
(PID.TID 0000.0001) > PTRACERS_names(48)='Phy27',
(PID.TID 0000.0001) > PTRACERS_units(48)='mmol P/m^3'
(PID.TID 0000.0001) > PTRACERS_advScheme(48)=33,
(PID.TID 0000.0001) > PTRACERS_diffKh(48)=0.E3,
(PID.TID 0000.0001) > PTRACERS_diffKr(48)=1.E-5,
(PID.TID 0000.0001) > PTRACERS_useGMRedi(48)=.FALSE. ,
(PID.TID 0000.0001) > PTRACERS_useKPP(48)=.FALSE.  ,
(PID.TID 0000.0001) > PTRACERS_initialFile(48)='../input/input/loc1_biomass_run83_janprof.bin',
(PID.TID 0000.0001) ># tracer 49 - PHYT28
(PID.TID 0000.0001) > PTRACERS_names(49)='Phy28',
(PID.TID 0000.0001) > PTRACERS_units(49)='mmol P/m^3'
(PID.TID 0000.0001) > PTRACERS_advScheme(49)=33,
(PID.TID 0000.0001) > PTRACERS_diffKh(49)=0.E3,
(PID.TID 0000.0001) > PTRACERS_diffKr(49)=1.E-5,
(PID.TID 0000.0001) > PTRACERS_useGMRedi(49)=.FALSE. ,
(PID.TID 0000.0001) > PTRACERS_useKPP(49)=.FALSE.  ,
(PID.TID 0000.0001) > PTRACERS_initialFile(49)='../input/input/loc1_biomass_run83_janprof.bin',
(PID.TID 0000.0001) ># tracer 50 - PHYT29
(PID.TID 0000.0001) > PTRACERS_names(50)='Phy29',
(PID.TID 0000.0001) > PTRACERS_units(50)='mmol P/m^3'
(PID.TID 0000.0001) > PTRACERS_advScheme(50)=33,
(PID.TID 0000.0001) > PTRACERS_diffKh(50)=0.E3,
(PID.TID 0000.0001) > PTRACERS_diffKr(50)=1.E-5,
(PID.TID 0000.0001) > PTRACERS_useGMRedi(50)=.FALSE. ,
(PID.TID 0000.0001) > PTRACERS_useKPP(50)=.FALSE.  ,
(PID.TID 0000.0001) > PTRACERS_initialFile(50)='../input/input/loc1_biomass_run83_janprof.bin',
(PID.TID 0000.0001) ># tracer 51 - PHY30
(PID.TID 0000.0001) > PTRACERS_names(51)='Phy30',
(PID.TID 0000.0001) > PTRACERS_units(51)='mmol P/m^3'
(PID.TID 0000.0001) > PTRACERS_advScheme(51)=33,
(PID.TID 0000.0001) > PTRACERS_diffKh(51)=0.E3,
(PID.TID 0000.0001) > PTRACERS_diffKr(51)=1.E-5,
(PID.TID 0000.0001) > PTRACERS_useGMRedi(51)=.FALSE. ,
(PID.TID 0000.0001) > PTRACERS_useKPP(51)=.FALSE.  ,
(PID.TID 0000.0001) > PTRACERS_initialFile(51)='../input/input/loc1_biomass_run83_janprof.bin',
(PID.TID 0000.0001) ># tracer 52 - PHY31
(PID.TID 0000.0001) > PTRACERS_names(52)='Phy31',
(PID.TID 0000.0001) > PTRACERS_units(52)='mmol P/m^3'
(PID.TID 0000.0001) > PTRACERS_advScheme(52)=33,
(PID.TID 0000.0001) > PTRACERS_diffKh(52)=0.E3,
(PID.TID 0000.0001) > PTRACERS_diffKr(52)=1.E-5,
(PID.TID 0000.0001) > PTRACERS_useGMRedi(52)=.FALSE. ,
(PID.TID 0000.0001) > PTRACERS_useKPP(52)=.FALSE.  ,
(PID.TID 0000.0001) > PTRACERS_initialFile(52)='../input/input/loc1_biomass_run83_janprof.bin',
(PID.TID 0000.0001) ># tracer 53 - PHY32
(PID.TID 0000.0001) > PTRACERS_names(53)='Phy32',
(PID.TID 0000.0001) > PTRACERS_units(53)='mmol P/m^3'
(PID.TID 0000.0001) > PTRACERS_advScheme(53)=33,
(PID.TID 0000.0001) > PTRACERS_diffKh(53)=0.E3,
(PID.TID 0000.0001) > PTRACERS_diffKr(53)=1.E-5,
(PID.TID 0000.0001) > PTRACERS_useGMRedi(53)=.FALSE. ,
(PID.TID 0000.0001) > PTRACERS_useKPP(53)=.FALSE.  ,
(PID.TID 0000.0001) > PTRACERS_initialFile(53)='../input/input/loc1_biomass_run83_janprof.bin',
(PID.TID 0000.0001) ># tracer 54 - PHY33
(PID.TID 0000.0001) > PTRACERS_names(54)='Phy33',
(PID.TID 0000.0001) > PTRACERS_units(54)='mmol P/m^3'
(PID.TID 0000.0001) > PTRACERS_advScheme(54)=33,
(PID.TID 0000.0001) > PTRACERS_diffKh(54)=0.E3,
(PID.TID 0000.0001) > PTRACERS_diffKr(54)=1.E-5,
(PID.TID 0000.0001) > PTRACERS_useGMRedi(54)=.FALSE. ,
(PID.TID 0000.0001) > PTRACERS_useKPP(54)=.FALSE.  ,
(PID.TID 0000.0001) > PTRACERS_initialFile(54)='../input/input/loc1_biomass_run83_janprof.bin',
(PID.TID 0000.0001) ># tracer 55 - PHY34
(PID.TID 0000.0001) > PTRACERS_names(55)='Phy34',
(PID.TID 0000.0001) > PTRACERS_units(55)='mmol P/m^3'
(PID.TID 0000.0001) > PTRACERS_advScheme(55)=33,
(PID.TID 0000.0001) > PTRACERS_diffKh(55)=0.E3,
(PID.TID 0000.0001) > PTRACERS_diffKr(55)=1.E-5,
(PID.TID 0000.0001) > PTRACERS_useGMRedi(55)=.FALSE. ,
(PID.TID 0000.0001) > PTRACERS_useKPP(55)=.FALSE.  ,
(PID.TID 0000.0001) > PTRACERS_initialFile(55)='../input/input/loc1_biomass_run83_janprof.bin',
(PID.TID 0000.0001) ># tracer 56 - PHY35
(PID.TID 0000.0001) > PTRACERS_names(56)='Phy35',
(PID.TID 0000.0001) > PTRACERS_units(56)='mmol P/m^3'
(PID.TID 0000.0001) > PTRACERS_advScheme(56)=33,
(PID.TID 0000.0001) > PTRACERS_diffKh(56)=0.E3,
(PID.TID 0000.0001) > PTRACERS_diffKr(56)=1.E-5,
(PID.TID 0000.0001) > PTRACERS_useGMRedi(56)=.FALSE. ,
(PID.TID 0000.0001) > PTRACERS_useKPP(56)=.FALSE.  ,
(PID.TID 0000.0001) > PTRACERS_initialFile(56)='../input/input/loc1_biomass_run83_janprof.bin',
(PID.TID 0000.0001) ># tracer 57 - PHY36
(PID.TID 0000.0001) > PTRACERS_names(57)='Phy36',
(PID.TID 0000.0001) > PTRACERS_units(57)='mmol P/m^3'
(PID.TID 0000.0001) > PTRACERS_advScheme(57)=33,
(PID.TID 0000.0001) > PTRACERS_diffKh(57)=0.E3,
(PID.TID 0000.0001) > PTRACERS_diffKr(57)=1.E-5,
(PID.TID 0000.0001) > PTRACERS_useGMRedi(57)=.FALSE. ,
(PID.TID 0000.0001) > PTRACERS_useKPP(57)=.FALSE.  ,
(PID.TID 0000.0001) > PTRACERS_initialFile(57)='../input/input/loc1_biomass_run83_janprof.bin',
(PID.TID 0000.0001) ># tracer 58 - PHY37
(PID.TID 0000.0001) > PTRACERS_names(58)='Phy37',
(PID.TID 0000.0001) > PTRACERS_units(58)='mmol P/m^3'
(PID.TID 0000.0001) > PTRACERS_advScheme(58)=33,
(PID.TID 0000.0001) > PTRACERS_diffKh(58)=0.E3,
(PID.TID 0000.0001) > PTRACERS_diffKr(58)=1.E-5,
(PID.TID 0000.0001) > PTRACERS_useGMRedi(58)=.FALSE. ,
(PID.TID 0000.0001) > PTRACERS_useKPP(58)=.FALSE.  ,
(PID.TID 0000.0001) > PTRACERS_initialFile(58)='../input/input/loc1_biomass_run83_janprof.bin',
(PID.TID 0000.0001) ># tracer 59 - PHY38
(PID.TID 0000.0001) > PTRACERS_names(59)='Phy38',
(PID.TID 0000.0001) > PTRACERS_units(59)='mmol P/m^3'
(PID.TID 0000.0001) > PTRACERS_advScheme(59)=33,
(PID.TID 0000.0001) > PTRACERS_diffKh(59)=0.E3,
(PID.TID 0000.0001) > PTRACERS_diffKr(59)=1.E-5,
(PID.TID 0000.0001) > PTRACERS_useGMRedi(59)=.FALSE. ,
(PID.TID 0000.0001) > PTRACERS_useKPP(59)=.FALSE.  ,
(PID.TID 0000.0001) > PTRACERS_initialFile(59)='../input/input/loc1_biomass_run83_janprof.bin',
(PID.TID 0000.0001) ># tracer 60 - PHY39
(PID.TID 0000.0001) > PTRACERS_names(60)='Phy39',
(PID.TID 0000.0001) > PTRACERS_units(60)='mmol P/m^3'
(PID.TID 0000.0001) > PTRACERS_advScheme(60)=33,
(PID.TID 0000.0001) > PTRACERS_diffKh(60)=0.E3,
(PID.TID 0000.0001) > PTRACERS_diffKr(60)=1.E-5,
(PID.TID 0000.0001) > PTRACERS_useGMRedi(60)=.FALSE. ,
(PID.TID 0000.0001) > PTRACERS_useKPP(60)=.FALSE.  ,
(PID.TID 0000.0001) > PTRACERS_initialFile(60)='../input/input/loc1_biomass_run83_janprof.bin',
(PID.TID 0000.0001) ># tracer 61 - PHY40
(PID.TID 0000.0001) > PTRACERS_names(61)='Phy40',
(PID.TID 0000.0001) > PTRACERS_units(61)='mmol P/m^3'
(PID.TID 0000.0001) > PTRACERS_advScheme(61)=33,
(PID.TID 0000.0001) > PTRACERS_diffKh(61)=0.E3,
(PID.TID 0000.0001) > PTRACERS_diffKr(61)=1.E-5,
(PID.TID 0000.0001) > PTRACERS_useGMRedi(61)=.FALSE. ,
(PID.TID 0000.0001) > PTRACERS_useKPP(61)=.FALSE.  ,
(PID.TID 0000.0001) > PTRACERS_initialFile(61)='../input/input/loc1_biomass_run83_janprof.bin',
(PID.TID 0000.0001) ># tracer 62 - PHY41
(PID.TID 0000.0001) > PTRACERS_names(62)='Phy41',
(PID.TID 0000.0001) > PTRACERS_units(62)='mmol P/m^3'
(PID.TID 0000.0001) > PTRACERS_advScheme(62)=33,
(PID.TID 0000.0001) > PTRACERS_diffKh(62)=0.E3,
(PID.TID 0000.0001) > PTRACERS_diffKr(62)=1.E-5,
(PID.TID 0000.0001) > PTRACERS_useGMRedi(62)=.FALSE. ,
(PID.TID 0000.0001) > PTRACERS_useKPP(62)=.FALSE.  ,
(PID.TID 0000.0001) > PTRACERS_initialFile(62)='../input/input/loc1_biomass_run83_janprof.bin',
(PID.TID 0000.0001) ># tracer 63 - PHY42
(PID.TID 0000.0001) > PTRACERS_names(63)='Phy42',
(PID.TID 0000.0001) > PTRACERS_units(63)='mmol P/m^3'
(PID.TID 0000.0001) > PTRACERS_advScheme(63)=33,
(PID.TID 0000.0001) > PTRACERS_diffKh(63)=0.E3,
(PID.TID 0000.0001) > PTRACERS_diffKr(63)=1.E-5,
(PID.TID 0000.0001) > PTRACERS_useGMRedi(63)=.FALSE. ,
(PID.TID 0000.0001) > PTRACERS_useKPP(63)=.FALSE.  ,
(PID.TID 0000.0001) > PTRACERS_initialFile(63)='../input/input/loc1_biomass_run83_janprof.bin',
(PID.TID 0000.0001) ># tracer 64 - PHY43
(PID.TID 0000.0001) > PTRACERS_names(64)='Phy43',
(PID.TID 0000.0001) > PTRACERS_units(64)='mmol P/m^3'
(PID.TID 0000.0001) > PTRACERS_advScheme(64)=33,
(PID.TID 0000.0001) > PTRACERS_diffKh(64)=0.E3,
(PID.TID 0000.0001) > PTRACERS_diffKr(64)=1.E-5,
(PID.TID 0000.0001) > PTRACERS_useGMRedi(64)=.FALSE. ,
(PID.TID 0000.0001) > PTRACERS_useKPP(64)=.FALSE.  ,
(PID.TID 0000.0001) > PTRACERS_initialFile(64)='../input/input/loc1_biomass_run83_janprof.bin',
(PID.TID 0000.0001) ># tracer 65 - PHY44
(PID.TID 0000.0001) > PTRACERS_names(65)='Phy44',
(PID.TID 0000.0001) > PTRACERS_units(65)='mmol P/m^3'
(PID.TID 0000.0001) > PTRACERS_advScheme(65)=33,
(PID.TID 0000.0001) > PTRACERS_diffKh(65)=0.E3,
(PID.TID 0000.0001) > PTRACERS_diffKr(65)=1.E-5,
(PID.TID 0000.0001) > PTRACERS_useGMRedi(65)=.FALSE. ,
(PID.TID 0000.0001) > PTRACERS_useKPP(65)=.FALSE.  ,
(PID.TID 0000.0001) > PTRACERS_initialFile(65)='../input/input/loc1_biomass_run83_janprof.bin',
(PID.TID 0000.0001) ># tracer 66 - PHY45
(PID.TID 0000.0001) > PTRACERS_names(66)='Phy45',
(PID.TID 0000.0001) > PTRACERS_units(66)='mmol P/m^3'
(PID.TID 0000.0001) > PTRACERS_advScheme(66)=33,
(PID.TID 0000.0001) > PTRACERS_diffKh(66)=0.E3,
(PID.TID 0000.0001) > PTRACERS_diffKr(66)=1.E-5,
(PID.TID 0000.0001) > PTRACERS_useGMRedi(66)=.FALSE. ,
(PID.TID 0000.0001) > PTRACERS_useKPP(66)=.FALSE.  ,
(PID.TID 0000.0001) > PTRACERS_initialFile(66)='../input/input/loc1_biomass_run83_janprof.bin',
(PID.TID 0000.0001) ># tracer 67 - PHY46
(PID.TID 0000.0001) > PTRACERS_names(67)='Phy46',
(PID.TID 0000.0001) > PTRACERS_units(67)='mmol P/m^3'
(PID.TID 0000.0001) > PTRACERS_advScheme(67)=33,
(PID.TID 0000.0001) > PTRACERS_diffKh(67)=0.E3,
(PID.TID 0000.0001) > PTRACERS_diffKr(67)=1.E-5,
(PID.TID 0000.0001) > PTRACERS_useGMRedi(67)=.FALSE. ,
(PID.TID 0000.0001) > PTRACERS_useKPP(67)=.FALSE.  ,
(PID.TID 0000.0001) > PTRACERS_initialFile(67)='../input/input/loc1_biomass_run83_janprof.bin',
(PID.TID 0000.0001) ># tracer 68 - PHY47
(PID.TID 0000.0001) > PTRACERS_names(68)='Phy47',
(PID.TID 0000.0001) > PTRACERS_units(68)='mmol P/m^3'
(PID.TID 0000.0001) > PTRACERS_advScheme(68)=33,
(PID.TID 0000.0001) > PTRACERS_diffKh(68)=0.E3,
(PID.TID 0000.0001) > PTRACERS_diffKr(68)=1.E-5,
(PID.TID 0000.0001) > PTRACERS_useGMRedi(68)=.FALSE. ,
(PID.TID 0000.0001) > PTRACERS_useKPP(68)=.FALSE.  ,
(PID.TID 0000.0001) > PTRACERS_initialFile(68)='../input/input/loc1_biomass_run83_janprof.bin',
(PID.TID 0000.0001) ># tracer 69 - PHY48
(PID.TID 0000.0001) > PTRACERS_names(69)='Phy48',
(PID.TID 0000.0001) > PTRACERS_units(69)='mmol P/m^3'
(PID.TID 0000.0001) > PTRACERS_advScheme(69)=33,
(PID.TID 0000.0001) > PTRACERS_diffKh(69)=0.E3,
(PID.TID 0000.0001) > PTRACERS_diffKr(69)=1.E-5,
(PID.TID 0000.0001) > PTRACERS_useGMRedi(69)=.FALSE. ,
(PID.TID 0000.0001) > PTRACERS_useKPP(69)=.FALSE.  ,
(PID.TID 0000.0001) > PTRACERS_initialFile(69)='../input/input/loc1_biomass_run83_janprof.bin',
(PID.TID 0000.0001) ># tracer 70 - PHY49
(PID.TID 0000.0001) > PTRACERS_names(70)='Phy49',
(PID.TID 0000.0001) > PTRACERS_units(70)='mmol P/m^3'
(PID.TID 0000.0001) > PTRACERS_advScheme(70)=33,
(PID.TID 0000.0001) > PTRACERS_diffKh(70)=0.E3,
(PID.TID 0000.0001) > PTRACERS_diffKr(70)=1.E-5,
(PID.TID 0000.0001) > PTRACERS_useGMRedi(70)=.FALSE. ,
(PID.TID 0000.0001) > PTRACERS_useKPP(70)=.FALSE.  ,
(PID.TID 0000.0001) > PTRACERS_initialFile(70)='../input/input/loc1_biomass_run83_janprof.bin',
(PID.TID 0000.0001) ># tracer 71 - PHY50
(PID.TID 0000.0001) > PTRACERS_names(71)='Phy50',
(PID.TID 0000.0001) > PTRACERS_units(71)='mmol P/m^3'
(PID.TID 0000.0001) > PTRACERS_advScheme(71)=33,
(PID.TID 0000.0001) > PTRACERS_diffKh(71)=0.E3,
(PID.TID 0000.0001) > PTRACERS_diffKr(71)=1.E-5,
(PID.TID 0000.0001) > PTRACERS_useGMRedi(71)=.FALSE. ,
(PID.TID 0000.0001) > PTRACERS_useKPP(71)=.FALSE.  ,
(PID.TID 0000.0001) > PTRACERS_initialFile(71)='../input/input/loc1_biomass_run83_janprof.bin',
(PID.TID 0000.0001) ># tracer 72 - PHY51
(PID.TID 0000.0001) > PTRACERS_names(72)='Phy51',
(PID.TID 0000.0001) > PTRACERS_units(72)='mmol P/m^3'
(PID.TID 0000.0001) > PTRACERS_advScheme(72)=33,
(PID.TID 0000.0001) > PTRACERS_diffKh(72)=0.E3,
(PID.TID 0000.0001) > PTRACERS_diffKr(72)=1.E-5,
(PID.TID 0000.0001) > PTRACERS_useGMRedi(72)=.FALSE. ,
(PID.TID 0000.0001) > PTRACERS_useKPP(72)=.FALSE.  ,
(PID.TID 0000.0001) > PTRACERS_initialFile(72)='../input/input/loc1_biomass_run83_janprof.bin',
(PID.TID 0000.0001) ># tracer 73 - PHY52
(PID.TID 0000.0001) > PTRACERS_names(73)='Phy52',
(PID.TID 0000.0001) > PTRACERS_units(73)='mmol P/m^3'
(PID.TID 0000.0001) > PTRACERS_advScheme(73)=33,
(PID.TID 0000.0001) > PTRACERS_diffKh(73)=0.E3,
(PID.TID 0000.0001) > PTRACERS_diffKr(73)=1.E-5,
(PID.TID 0000.0001) > PTRACERS_useGMRedi(73)=.FALSE. ,
(PID.TID 0000.0001) > PTRACERS_useKPP(73)=.FALSE.  ,
(PID.TID 0000.0001) > PTRACERS_initialFile(73)='../input/input/loc1_biomass_run83_janprof.bin',
(PID.TID 0000.0001) ># tracer 74 - PHY53
(PID.TID 0000.0001) > PTRACERS_names(74)='Phy53',
(PID.TID 0000.0001) > PTRACERS_units(74)='mmol P/m^3'
(PID.TID 0000.0001) > PTRACERS_advScheme(74)=33,
(PID.TID 0000.0001) > PTRACERS_diffKh(74)=0.E3,
(PID.TID 0000.0001) > PTRACERS_diffKr(74)=1.E-5,
(PID.TID 0000.0001) > PTRACERS_useGMRedi(74)=.FALSE. ,
(PID.TID 0000.0001) > PTRACERS_useKPP(74)=.FALSE.  ,
(PID.TID 0000.0001) > PTRACERS_initialFile(74)='../input/input/loc1_biomass_run83_janprof.bin',
(PID.TID 0000.0001) ># tracer 75 - PHY54
(PID.TID 0000.0001) > PTRACERS_names(75)='Phy54',
(PID.TID 0000.0001) > PTRACERS_units(75)='mmol P/m^3'
(PID.TID 0000.0001) > PTRACERS_advScheme(75)=33,
(PID.TID 0000.0001) > PTRACERS_diffKh(75)=0.E3,
(PID.TID 0000.0001) > PTRACERS_diffKr(75)=1.E-5,
(PID.TID 0000.0001) > PTRACERS_useGMRedi(75)=.FALSE. ,
(PID.TID 0000.0001) > PTRACERS_useKPP(75)=.FALSE.  ,
(PID.TID 0000.0001) > PTRACERS_initialFile(75)='../input/input/loc1_biomass_run83_janprof.bin',
(PID.TID 0000.0001) ># tracer 76 - PHY55
(PID.TID 0000.0001) > PTRACERS_names(76)='Phy55',
(PID.TID 0000.0001) > PTRACERS_units(76)='mmol P/m^3'
(PID.TID 0000.0001) > PTRACERS_advScheme(76)=33,
(PID.TID 0000.0001) > PTRACERS_diffKh(76)=0.E3,
(PID.TID 0000.0001) > PTRACERS_diffKr(76)=1.E-5,
(PID.TID 0000.0001) > PTRACERS_useGMRedi(76)=.FALSE. ,
(PID.TID 0000.0001) > PTRACERS_useKPP(76)=.FALSE.  ,
(PID.TID 0000.0001) > PTRACERS_initialFile(76)='../input/input/loc1_biomass_run83_janprof.bin',
(PID.TID 0000.0001) ># tracer 77 - PHY56
(PID.TID 0000.0001) > PTRACERS_names(77)='Phy56',
(PID.TID 0000.0001) > PTRACERS_units(77)='mmol P/m^3'
(PID.TID 0000.0001) > PTRACERS_advScheme(77)=33,
(PID.TID 0000.0001) > PTRACERS_diffKh(77)=0.E3,
(PID.TID 0000.0001) > PTRACERS_diffKr(77)=1.E-5,
(PID.TID 0000.0001) > PTRACERS_useGMRedi(77)=.FALSE. ,
(PID.TID 0000.0001) > PTRACERS_useKPP(77)=.FALSE.  ,
(PID.TID 0000.0001) > PTRACERS_initialFile(77)='../input/input/loc1_biomass_run83_janprof.bin',
(PID.TID 0000.0001) ># tracer 78 - PHY57
(PID.TID 0000.0001) > PTRACERS_names(78)='Phy57',
(PID.TID 0000.0001) > PTRACERS_units(78)='mmol P/m^3'
(PID.TID 0000.0001) > PTRACERS_advScheme(78)=33,
(PID.TID 0000.0001) > PTRACERS_diffKh(78)=0.E3,
(PID.TID 0000.0001) > PTRACERS_diffKr(78)=1.E-5,
(PID.TID 0000.0001) > PTRACERS_useGMRedi(78)=.FALSE. ,
(PID.TID 0000.0001) > PTRACERS_useKPP(78)=.FALSE.  ,
(PID.TID 0000.0001) > PTRACERS_initialFile(78)='../input/input/loc1_biomass_run83_janprof.bin',
(PID.TID 0000.0001) ># tracer 79 - PHY58
(PID.TID 0000.0001) > PTRACERS_names(79)='Phy58',
(PID.TID 0000.0001) > PTRACERS_units(79)='mmol P/m^3'
(PID.TID 0000.0001) > PTRACERS_advScheme(79)=33,
(PID.TID 0000.0001) > PTRACERS_diffKh(79)=0.E3,
(PID.TID 0000.0001) > PTRACERS_diffKr(79)=1.E-5,
(PID.TID 0000.0001) > PTRACERS_useGMRedi(79)=.FALSE. ,
(PID.TID 0000.0001) > PTRACERS_useKPP(79)=.FALSE.  ,
(PID.TID 0000.0001) > PTRACERS_initialFile(79)='../input/input/loc1_biomass_run83_janprof.bin',
(PID.TID 0000.0001) ># tracer 80 - PHY59
(PID.TID 0000.0001) > PTRACERS_names(80)='Phy59',
(PID.TID 0000.0001) > PTRACERS_units(80)='mmol P/m^3'
(PID.TID 0000.0001) > PTRACERS_advScheme(80)=33,
(PID.TID 0000.0001) > PTRACERS_diffKh(80)=0.E3,
(PID.TID 0000.0001) > PTRACERS_diffKr(80)=1.E-5,
(PID.TID 0000.0001) > PTRACERS_useGMRedi(80)=.FALSE. ,
(PID.TID 0000.0001) > PTRACERS_useKPP(80)=.FALSE.  ,
(PID.TID 0000.0001) > PTRACERS_initialFile(80)='../input/input/loc1_biomass_run83_janprof.bin',
(PID.TID 0000.0001) ># tracer 81 - PHY60
(PID.TID 0000.0001) > PTRACERS_names(81)='Phy60',
(PID.TID 0000.0001) > PTRACERS_units(81)='mmol P/m^3'
(PID.TID 0000.0001) > PTRACERS_advScheme(81)=33,
(PID.TID 0000.0001) > PTRACERS_diffKh(81)=0.E3,
(PID.TID 0000.0001) > PTRACERS_diffKr(81)=1.E-5,
(PID.TID 0000.0001) > PTRACERS_useGMRedi(81)=.FALSE. ,
(PID.TID 0000.0001) > PTRACERS_useKPP(81)=.FALSE.  ,
(PID.TID 0000.0001) > PTRACERS_initialFile(81)='../input/input/loc1_biomass_run83_janprof.bin',
(PID.TID 0000.0001) ># tracer 82 - PHY61
(PID.TID 0000.0001) > PTRACERS_names(82)='Phy61',
(PID.TID 0000.0001) > PTRACERS_units(82)='mmol P/m^3'
(PID.TID 0000.0001) > PTRACERS_advScheme(82)=33,
(PID.TID 0000.0001) > PTRACERS_diffKh(82)=0.E3,
(PID.TID 0000.0001) > PTRACERS_diffKr(82)=1.E-5,
(PID.TID 0000.0001) > PTRACERS_useGMRedi(82)=.FALSE. ,
(PID.TID 0000.0001) > PTRACERS_useKPP(82)=.FALSE.  ,
(PID.TID 0000.0001) > PTRACERS_initialFile(82)='../input/input/loc1_biomass_run83_janprof.bin',
(PID.TID 0000.0001) ># tracer 83 - PHY62
(PID.TID 0000.0001) > PTRACERS_names(83)='Phy62',
(PID.TID 0000.0001) > PTRACERS_units(83)='mmol P/m^3'
(PID.TID 0000.0001) > PTRACERS_advScheme(83)=33,
(PID.TID 0000.0001) > PTRACERS_diffKh(83)=0.E3,
(PID.TID 0000.0001) > PTRACERS_diffKr(83)=1.E-5,
(PID.TID 0000.0001) > PTRACERS_useGMRedi(83)=.FALSE. ,
(PID.TID 0000.0001) > PTRACERS_useKPP(83)=.FALSE.  ,
(PID.TID 0000.0001) > PTRACERS_initialFile(83)='../input/input/loc1_biomass_run83_janprof.bin',
(PID.TID 0000.0001) ># tracer 84 - PHY63
(PID.TID 0000.0001) > PTRACERS_names(84)='Phy63',
(PID.TID 0000.0001) > PTRACERS_units(84)='mmol P/m^3'
(PID.TID 0000.0001) > PTRACERS_advScheme(84)=33,
(PID.TID 0000.0001) > PTRACERS_diffKh(84)=0.E3,
(PID.TID 0000.0001) > PTRACERS_diffKr(84)=1.E-5,
(PID.TID 0000.0001) > PTRACERS_useGMRedi(84)=.FALSE. ,
(PID.TID 0000.0001) > PTRACERS_useKPP(84)=.FALSE.  ,
(PID.TID 0000.0001) > PTRACERS_initialFile(84)='../input/input/loc1_biomass_run83_janprof.bin',
(PID.TID 0000.0001) ># tracer 85 - PHY64
(PID.TID 0000.0001) > PTRACERS_names(85)='Phy64',
(PID.TID 0000.0001) > PTRACERS_units(85)='mmol P/m^3'
(PID.TID 0000.0001) > PTRACERS_advScheme(85)=33,
(PID.TID 0000.0001) > PTRACERS_diffKh(85)=0.E3,
(PID.TID 0000.0001) > PTRACERS_diffKr(85)=1.E-5,
(PID.TID 0000.0001) > PTRACERS_useGMRedi(85)=.FALSE. ,
(PID.TID 0000.0001) > PTRACERS_useKPP(85)=.FALSE.  ,
(PID.TID 0000.0001) > PTRACERS_initialFile(85)='../input/input/loc1_biomass_run83_janprof.bin',
(PID.TID 0000.0001) ># tracer 86 - PHY65
(PID.TID 0000.0001) > PTRACERS_names(86)='Phy65',
(PID.TID 0000.0001) > PTRACERS_units(86)='mmol P/m^3'
(PID.TID 0000.0001) > PTRACERS_advScheme(86)=33,
(PID.TID 0000.0001) > PTRACERS_diffKh(86)=0.E3,
(PID.TID 0000.0001) > PTRACERS_diffKr(86)=1.E-5,
(PID.TID 0000.0001) > PTRACERS_useGMRedi(86)=.FALSE. ,
(PID.TID 0000.0001) > PTRACERS_useKPP(86)=.FALSE.  ,
(PID.TID 0000.0001) > PTRACERS_initialFile(86)='../input/input/loc1_biomass_run83_janprof.bin',
(PID.TID 0000.0001) ># tracer 87 - PHY66
(PID.TID 0000.0001) > PTRACERS_names(87)='Phy66',
(PID.TID 0000.0001) > PTRACERS_units(87)='mmol P/m^3'
(PID.TID 0000.0001) > PTRACERS_advScheme(87)=33,
(PID.TID 0000.0001) > PTRACERS_diffKh(87)=0.E3,
(PID.TID 0000.0001) > PTRACERS_diffKr(87)=1.E-5,
(PID.TID 0000.0001) > PTRACERS_useGMRedi(87)=.FALSE. ,
(PID.TID 0000.0001) > PTRACERS_useKPP(87)=.FALSE.  ,
(PID.TID 0000.0001) > PTRACERS_initialFile(87)='../input/input/loc1_biomass_run83_janprof.bin',
(PID.TID 0000.0001) ># tracer 88 - PHY67
(PID.TID 0000.0001) > PTRACERS_names(88)='Phy67',
(PID.TID 0000.0001) > PTRACERS_units(88)='mmol P/m^3'
(PID.TID 0000.0001) > PTRACERS_advScheme(88)=33,
(PID.TID 0000.0001) > PTRACERS_diffKh(88)=0.E3,
(PID.TID 0000.0001) > PTRACERS_diffKr(88)=1.E-5,
(PID.TID 0000.0001) > PTRACERS_useGMRedi(88)=.FALSE. ,
(PID.TID 0000.0001) > PTRACERS_useKPP(88)=.FALSE.  ,
(PID.TID 0000.0001) > PTRACERS_initialFile(88)='../input/input/loc1_biomass_run83_janprof.bin',
(PID.TID 0000.0001) ># tracer 89 - PHY68
(PID.TID 0000.0001) > PTRACERS_names(89)='Phy68',
(PID.TID 0000.0001) > PTRACERS_units(89)='mmol P/m^3'
(PID.TID 0000.0001) > PTRACERS_advScheme(89)=33,
(PID.TID 0000.0001) > PTRACERS_diffKh(89)=0.E3,
(PID.TID 0000.0001) > PTRACERS_diffKr(89)=1.E-5,
(PID.TID 0000.0001) > PTRACERS_useGMRedi(89)=.FALSE. ,
(PID.TID 0000.0001) > PTRACERS_useKPP(89)=.FALSE.  ,
(PID.TID 0000.0001) > PTRACERS_initialFile(89)='../input/input/loc1_biomass_run83_janprof.bin',
(PID.TID 0000.0001) ># tracer 90 - PHY69
(PID.TID 0000.0001) > PTRACERS_names(90)='Phy69',
(PID.TID 0000.0001) > PTRACERS_units(90)='mmol P/m^3'
(PID.TID 0000.0001) > PTRACERS_advScheme(90)=33,
(PID.TID 0000.0001) > PTRACERS_diffKh(90)=0.E3,
(PID.TID 0000.0001) > PTRACERS_diffKr(90)=1.E-5,
(PID.TID 0000.0001) > PTRACERS_useGMRedi(90)=.FALSE. ,
(PID.TID 0000.0001) > PTRACERS_useKPP(90)=.FALSE.  ,
(PID.TID 0000.0001) > PTRACERS_initialFile(90)='../input/input/loc1_biomass_run83_janprof.bin',
(PID.TID 0000.0001) ># tracer 91 - PHY70
(PID.TID 0000.0001) > PTRACERS_names(91)='Phy70',
(PID.TID 0000.0001) > PTRACERS_units(91)='mmol P/m^3'
(PID.TID 0000.0001) > PTRACERS_advScheme(91)=33,
(PID.TID 0000.0001) > PTRACERS_diffKh(91)=0.E3,
(PID.TID 0000.0001) > PTRACERS_diffKr(91)=1.E-5,
(PID.TID 0000.0001) > PTRACERS_useGMRedi(91)=.FALSE. ,
(PID.TID 0000.0001) > PTRACERS_useKPP(91)=.FALSE.  ,
(PID.TID 0000.0001) > PTRACERS_initialFile(91)='../input/input/loc1_biomass_run83_janprof.bin',
(PID.TID 0000.0001) ># tracer 92 - PHY71
(PID.TID 0000.0001) > PTRACERS_names(92)='Phy71',
(PID.TID 0000.0001) > PTRACERS_units(92)='mmol P/m^3'
(PID.TID 0000.0001) > PTRACERS_advScheme(92)=33,
(PID.TID 0000.0001) > PTRACERS_diffKh(92)=0.E3,
(PID.TID 0000.0001) > PTRACERS_diffKr(92)=1.E-5,
(PID.TID 0000.0001) > PTRACERS_useGMRedi(92)=.FALSE. ,
(PID.TID 0000.0001) > PTRACERS_useKPP(92)=.FALSE.  ,
(PID.TID 0000.0001) > PTRACERS_initialFile(92)='../input/input/loc1_biomass_run83_janprof.bin',
(PID.TID 0000.0001) ># tracer 93 - PHY72
(PID.TID 0000.0001) > PTRACERS_names(93)='Phy72',
(PID.TID 0000.0001) > PTRACERS_units(93)='mmol P/m^3'
(PID.TID 0000.0001) > PTRACERS_advScheme(93)=33,
(PID.TID 0000.0001) > PTRACERS_diffKh(93)=0.E3,
(PID.TID 0000.0001) > PTRACERS_diffKr(93)=1.E-5,
(PID.TID 0000.0001) > PTRACERS_useGMRedi(93)=.FALSE. ,
(PID.TID 0000.0001) > PTRACERS_useKPP(93)=.FALSE.  ,
(PID.TID 0000.0001) > PTRACERS_initialFile(93)='../input/input/loc1_biomass_run83_janprof.bin',
(PID.TID 0000.0001) ># tracer 94 - PHY73
(PID.TID 0000.0001) > PTRACERS_names(94)='Phy73',
(PID.TID 0000.0001) > PTRACERS_units(94)='mmol P/m^3'
(PID.TID 0000.0001) > PTRACERS_advScheme(94)=33,
(PID.TID 0000.0001) > PTRACERS_diffKh(94)=0.E3,
(PID.TID 0000.0001) > PTRACERS_diffKr(94)=1.E-5,
(PID.TID 0000.0001) > PTRACERS_useGMRedi(94)=.FALSE. ,
(PID.TID 0000.0001) > PTRACERS_useKPP(94)=.FALSE.  ,
(PID.TID 0000.0001) > PTRACERS_initialFile(94)='../input/input/loc1_biomass_run83_janprof.bin',
(PID.TID 0000.0001) ># tracer 95 - PHY74
(PID.TID 0000.0001) > PTRACERS_names(95)='Phy74',
(PID.TID 0000.0001) > PTRACERS_units(95)='mmol P/m^3'
(PID.TID 0000.0001) > PTRACERS_advScheme(95)=33,
(PID.TID 0000.0001) > PTRACERS_diffKh(95)=0.E3,
(PID.TID 0000.0001) > PTRACERS_diffKr(95)=1.E-5,
(PID.TID 0000.0001) > PTRACERS_useGMRedi(95)=.FALSE. ,
(PID.TID 0000.0001) > PTRACERS_useKPP(95)=.FALSE.  ,
(PID.TID 0000.0001) > PTRACERS_initialFile(95)='../input/input/loc1_biomass_run83_janprof.bin',
(PID.TID 0000.0001) ># tracer 96 - PHY75
(PID.TID 0000.0001) > PTRACERS_names(96)='Phy75',
(PID.TID 0000.0001) > PTRACERS_units(96)='mmol P/m^3'
(PID.TID 0000.0001) > PTRACERS_advScheme(96)=33,
(PID.TID 0000.0001) > PTRACERS_diffKh(96)=0.E3,
(PID.TID 0000.0001) > PTRACERS_diffKr(96)=1.E-5,
(PID.TID 0000.0001) > PTRACERS_useGMRedi(96)=.FALSE. ,
(PID.TID 0000.0001) > PTRACERS_useKPP(96)=.FALSE.  ,
(PID.TID 0000.0001) > PTRACERS_initialFile(96)='../input/input/loc1_biomass_run83_janprof.bin',
(PID.TID 0000.0001) ># tracer 97 - PHY76
(PID.TID 0000.0001) > PTRACERS_names(97)='Phy76',
(PID.TID 0000.0001) > PTRACERS_units(97)='mmol P/m^3'
(PID.TID 0000.0001) > PTRACERS_advScheme(97)=33,
(PID.TID 0000.0001) > PTRACERS_diffKh(97)=0.E3,
(PID.TID 0000.0001) > PTRACERS_diffKr(97)=1.E-5,
(PID.TID 0000.0001) > PTRACERS_useGMRedi(97)=.FALSE. ,
(PID.TID 0000.0001) > PTRACERS_useKPP(97)=.FALSE.  ,
(PID.TID 0000.0001) > PTRACERS_initialFile(97)='../input/input/loc1_biomass_run83_janprof.bin',
(PID.TID 0000.0001) ># tracer 98 - PHY77
(PID.TID 0000.0001) > PTRACERS_names(98)='Phy77',
(PID.TID 0000.0001) > PTRACERS_units(98)='mmol P/m^3'
(PID.TID 0000.0001) > PTRACERS_advScheme(98)=33,
(PID.TID 0000.0001) > PTRACERS_diffKh(98)=0.E3,
(PID.TID 0000.0001) > PTRACERS_diffKr(98)=1.E-5,
(PID.TID 0000.0001) > PTRACERS_useGMRedi(98)=.FALSE. ,
(PID.TID 0000.0001) > PTRACERS_useKPP(98)=.FALSE.  ,
(PID.TID 0000.0001) > PTRACERS_initialFile(98)='../input/input/loc1_biomass_run83_janprof.bin',
(PID.TID 0000.0001) ># tracer 99 - PHY78
(PID.TID 0000.0001) > PTRACERS_names(99)='Phy78',
(PID.TID 0000.0001) > PTRACERS_units(99)='mmol P/m^3'
(PID.TID 0000.0001) > PTRACERS_advScheme(99)=33,
(PID.TID 0000.0001) > PTRACERS_diffKh(99)=0.E3,
(PID.TID 0000.0001) > PTRACERS_diffKr(99)=1.E-5,
(PID.TID 0000.0001) > PTRACERS_useGMRedi(99)=.FALSE. ,
(PID.TID 0000.0001) > PTRACERS_useKPP(99)=.FALSE.  ,
(PID.TID 0000.0001) > PTRACERS_initialFile(99)='../input/input/loc1_biomass_run83_janprof.bin',
(PID.TID 0000.0001) > &
(PID.TID 0000.0001) 
(PID.TID 0000.0001)  PTRACERS_READPARMS: finished reading data.ptracers
(PID.TID 0000.0001) // ===================================
(PID.TID 0000.0001) // PTRACERS parameters
(PID.TID 0000.0001) // ===================================
(PID.TID 0000.0001) PTRACERS_numInUse = /* number of tracers */
(PID.TID 0000.0001)                      99
(PID.TID 0000.0001)     ;
(PID.TID 0000.0001) PTRACERS_Iter0 = /* timestep number when tracers are initialized */
(PID.TID 0000.0001)                       0
(PID.TID 0000.0001)     ;
(PID.TID 0000.0001) PTRACERS_dumpFreq = /* Frequency^-1 for snapshot output (s) */
(PID.TID 0000.0001)                 3.110400000000000E+07
(PID.TID 0000.0001)     ;
(PID.TID 0000.0001) PTRACERS_taveFreq = /* Frequency^-1 for time-Aver. output (s) */
(PID.TID 0000.0001)                 2.592000000000000E+06
(PID.TID 0000.0001)     ;
(PID.TID 0000.0001) PTRACERS_useRecords = /* all tracers in 1 file */
(PID.TID 0000.0001)                   F
(PID.TID 0000.0001)     ;
(PID.TID 0000.0001) PTRACERS_timeave_mnc = /* use MNC for Tave output */
(PID.TID 0000.0001)                   T
(PID.TID 0000.0001)     ;
(PID.TID 0000.0001) PTRACERS_snapshot_mnc = /* use MNC for snapshot output */
(PID.TID 0000.0001)                   T
(PID.TID 0000.0001)     ;
(PID.TID 0000.0001) PTRACERS_pickup_write_mnc = /* use MNC for writing pickups */
(PID.TID 0000.0001)                   F
(PID.TID 0000.0001)     ;
(PID.TID 0000.0001) PTRACERS_pickup_read_mnc = /* use MNC for reading pickups */
(PID.TID 0000.0001)                   F
(PID.TID 0000.0001)     ;
(PID.TID 0000.0001)  -----------------------------------
(PID.TID 0000.0001)  tracer number :    1
(PID.TID 0000.0001) PTRACERS_ioLabel = /* tracer IO Label */
(PID.TID 0000.0001)               '01'
(PID.TID 0000.0001)     ;
(PID.TID 0000.0001) PTRACERS_advScheme = /* Advection Scheme */
(PID.TID 0000.0001)                      33
(PID.TID 0000.0001)     ;
(PID.TID 0000.0001) PTRACERS_ImplVertAdv = /* implicit vert. advection flag */
(PID.TID 0000.0001)                   F
(PID.TID 0000.0001)     ;
(PID.TID 0000.0001) PTRACERS_diffKh = /* Laplacian Diffusivity */
(PID.TID 0000.0001)                 0.000000000000000E+00
(PID.TID 0000.0001)     ;
(PID.TID 0000.0001) PTRACERS_diffK4 = /* Biharmonic Diffusivity */
(PID.TID 0000.0001)                 0.000000000000000E+00
(PID.TID 0000.0001)     ;
(PID.TID 0000.0001) PTRACERS_diffKrNr = /* Vertical Diffusivity */
(PID.TID 0000.0001)    35 @  1.000000000000000E-05              /* K =  1: 35 */
(PID.TID 0000.0001)     ;
(PID.TID 0000.0001) PTRACERS_useGMRedi = /* apply GM-Redi */
(PID.TID 0000.0001)                   F
(PID.TID 0000.0001)     ;
(PID.TID 0000.0001) PTRACERS_useKPP = /* apply KPP scheme */
(PID.TID 0000.0001)                   F
(PID.TID 0000.0001)     ;
(PID.TID 0000.0001) PTRACERS_ref = /* Reference vertical profile */
(PID.TID 0000.0001)    35 @  0.000000000000000E+00              /* K =  1: 35 */
(PID.TID 0000.0001)     ;
(PID.TID 0000.0001) PTRACERS_EvPrRn =/* tracer conc. in Evap. & Rain */
(PID.TID 0000.0001)                 1.234567000000000E+05
(PID.TID 0000.0001)     ;
(PID.TID 0000.0001)  -----------------------------------
(PID.TID 0000.0001)  tracer number :    2
(PID.TID 0000.0001) PTRACERS_ioLabel = /* tracer IO Label */
(PID.TID 0000.0001)               '02'
(PID.TID 0000.0001)     ;
(PID.TID 0000.0001) PTRACERS_advScheme = /* Advection Scheme */
(PID.TID 0000.0001)                      33
(PID.TID 0000.0001)     ;
(PID.TID 0000.0001) PTRACERS_ImplVertAdv = /* implicit vert. advection flag */
(PID.TID 0000.0001)                   F
(PID.TID 0000.0001)     ;
(PID.TID 0000.0001) PTRACERS_diffKh = /* Laplacian Diffusivity */
(PID.TID 0000.0001)                 0.000000000000000E+00
(PID.TID 0000.0001)     ;
(PID.TID 0000.0001) PTRACERS_diffK4 = /* Biharmonic Diffusivity */
(PID.TID 0000.0001)                 0.000000000000000E+00
(PID.TID 0000.0001)     ;
(PID.TID 0000.0001) PTRACERS_diffKrNr = /* Vertical Diffusivity */
(PID.TID 0000.0001)    35 @  1.000000000000000E-05              /* K =  1: 35 */
(PID.TID 0000.0001)     ;
(PID.TID 0000.0001) PTRACERS_useGMRedi = /* apply GM-Redi */
(PID.TID 0000.0001)                   F
(PID.TID 0000.0001)     ;
(PID.TID 0000.0001) PTRACERS_useKPP = /* apply KPP scheme */
(PID.TID 0000.0001)                   F
(PID.TID 0000.0001)     ;
(PID.TID 0000.0001) PTRACERS_ref = /* Reference vertical profile */
(PID.TID 0000.0001)    35 @  0.000000000000000E+00              /* K =  1: 35 */
(PID.TID 0000.0001)     ;
(PID.TID 0000.0001) PTRACERS_EvPrRn =/* tracer conc. in Evap. & Rain */
(PID.TID 0000.0001)                 1.234567000000000E+05
(PID.TID 0000.0001)     ;
(PID.TID 0000.0001)  -----------------------------------
(PID.TID 0000.0001)  tracer number :    3
(PID.TID 0000.0001) PTRACERS_ioLabel = /* tracer IO Label */
(PID.TID 0000.0001)               '03'
(PID.TID 0000.0001)     ;
(PID.TID 0000.0001) PTRACERS_advScheme = /* Advection Scheme */
(PID.TID 0000.0001)                      33
(PID.TID 0000.0001)     ;
(PID.TID 0000.0001) PTRACERS_ImplVertAdv = /* implicit vert. advection flag */
(PID.TID 0000.0001)                   F
(PID.TID 0000.0001)     ;
(PID.TID 0000.0001) PTRACERS_diffKh = /* Laplacian Diffusivity */
(PID.TID 0000.0001)                 0.000000000000000E+00
(PID.TID 0000.0001)     ;
(PID.TID 0000.0001) PTRACERS_diffK4 = /* Biharmonic Diffusivity */
(PID.TID 0000.0001)                 0.000000000000000E+00
(PID.TID 0000.0001)     ;
(PID.TID 0000.0001) PTRACERS_diffKrNr = /* Vertical Diffusivity */
(PID.TID 0000.0001)    35 @  1.000000000000000E-05              /* K =  1: 35 */
(PID.TID 0000.0001)     ;
(PID.TID 0000.0001) PTRACERS_useGMRedi = /* apply GM-Redi */
(PID.TID 0000.0001)                   F
(PID.TID 0000.0001)     ;
(PID.TID 0000.0001) PTRACERS_useKPP = /* apply KPP scheme */
(PID.TID 0000.0001)                   F
(PID.TID 0000.0001)     ;
(PID.TID 0000.0001) PTRACERS_ref = /* Reference vertical profile */
(PID.TID 0000.0001)    35 @  0.000000000000000E+00              /* K =  1: 35 */
(PID.TID 0000.0001)     ;
(PID.TID 0000.0001) PTRACERS_EvPrRn =/* tracer conc. in Evap. & Rain */
(PID.TID 0000.0001)                 1.234567000000000E+05
(PID.TID 0000.0001)     ;
(PID.TID 0000.0001)  -----------------------------------
(PID.TID 0000.0001)  tracer number :    4
(PID.TID 0000.0001) PTRACERS_ioLabel = /* tracer IO Label */
(PID.TID 0000.0001)               '04'
(PID.TID 0000.0001)     ;
(PID.TID 0000.0001) PTRACERS_advScheme = /* Advection Scheme */
(PID.TID 0000.0001)                      33
(PID.TID 0000.0001)     ;
(PID.TID 0000.0001) PTRACERS_ImplVertAdv = /* implicit vert. advection flag */
(PID.TID 0000.0001)                   F
(PID.TID 0000.0001)     ;
(PID.TID 0000.0001) PTRACERS_diffKh = /* Laplacian Diffusivity */
(PID.TID 0000.0001)                 0.000000000000000E+00
(PID.TID 0000.0001)     ;
(PID.TID 0000.0001) PTRACERS_diffK4 = /* Biharmonic Diffusivity */
(PID.TID 0000.0001)                 0.000000000000000E+00
(PID.TID 0000.0001)     ;
(PID.TID 0000.0001) PTRACERS_diffKrNr = /* Vertical Diffusivity */
(PID.TID 0000.0001)    35 @  1.000000000000000E-05              /* K =  1: 35 */
(PID.TID 0000.0001)     ;
(PID.TID 0000.0001) PTRACERS_useGMRedi = /* apply GM-Redi */
(PID.TID 0000.0001)                   F
(PID.TID 0000.0001)     ;
(PID.TID 0000.0001) PTRACERS_useKPP = /* apply KPP scheme */
(PID.TID 0000.0001)                   F
(PID.TID 0000.0001)     ;
(PID.TID 0000.0001) PTRACERS_ref = /* Reference vertical profile */
(PID.TID 0000.0001)    35 @  0.000000000000000E+00              /* K =  1: 35 */
(PID.TID 0000.0001)     ;
(PID.TID 0000.0001) PTRACERS_EvPrRn =/* tracer conc. in Evap. & Rain */
(PID.TID 0000.0001)                 1.234567000000000E+05
(PID.TID 0000.0001)     ;
(PID.TID 0000.0001)  -----------------------------------
(PID.TID 0000.0001)  tracer number :    5
(PID.TID 0000.0001) PTRACERS_ioLabel = /* tracer IO Label */
(PID.TID 0000.0001)               '05'
(PID.TID 0000.0001)     ;
(PID.TID 0000.0001) PTRACERS_advScheme = /* Advection Scheme */
(PID.TID 0000.0001)                      33
(PID.TID 0000.0001)     ;
(PID.TID 0000.0001) PTRACERS_ImplVertAdv = /* implicit vert. advection flag */
(PID.TID 0000.0001)                   F
(PID.TID 0000.0001)     ;
(PID.TID 0000.0001) PTRACERS_diffKh = /* Laplacian Diffusivity */
(PID.TID 0000.0001)                 0.000000000000000E+00
(PID.TID 0000.0001)     ;
(PID.TID 0000.0001) PTRACERS_diffK4 = /* Biharmonic Diffusivity */
(PID.TID 0000.0001)                 0.000000000000000E+00
(PID.TID 0000.0001)     ;
(PID.TID 0000.0001) PTRACERS_diffKrNr = /* Vertical Diffusivity */
(PID.TID 0000.0001)    35 @  1.000000000000000E-05              /* K =  1: 35 */
(PID.TID 0000.0001)     ;
(PID.TID 0000.0001) PTRACERS_useGMRedi = /* apply GM-Redi */
(PID.TID 0000.0001)                   F
(PID.TID 0000.0001)     ;
(PID.TID 0000.0001) PTRACERS_useKPP = /* apply KPP scheme */
(PID.TID 0000.0001)                   F
(PID.TID 0000.0001)     ;
(PID.TID 0000.0001) PTRACERS_ref = /* Reference vertical profile */
(PID.TID 0000.0001)    35 @  0.000000000000000E+00              /* K =  1: 35 */
(PID.TID 0000.0001)     ;
(PID.TID 0000.0001) PTRACERS_EvPrRn =/* tracer conc. in Evap. & Rain */
(PID.TID 0000.0001)                 1.234567000000000E+05
(PID.TID 0000.0001)     ;
(PID.TID 0000.0001)  -----------------------------------
(PID.TID 0000.0001)  tracer number :    6
(PID.TID 0000.0001) PTRACERS_ioLabel = /* tracer IO Label */
(PID.TID 0000.0001)               '06'
(PID.TID 0000.0001)     ;
(PID.TID 0000.0001) PTRACERS_advScheme = /* Advection Scheme */
(PID.TID 0000.0001)                      33
(PID.TID 0000.0001)     ;
(PID.TID 0000.0001) PTRACERS_ImplVertAdv = /* implicit vert. advection flag */
(PID.TID 0000.0001)                   F
(PID.TID 0000.0001)     ;
(PID.TID 0000.0001) PTRACERS_diffKh = /* Laplacian Diffusivity */
(PID.TID 0000.0001)                 0.000000000000000E+00
(PID.TID 0000.0001)     ;
(PID.TID 0000.0001) PTRACERS_diffK4 = /* Biharmonic Diffusivity */
(PID.TID 0000.0001)                 0.000000000000000E+00
(PID.TID 0000.0001)     ;
(PID.TID 0000.0001) PTRACERS_diffKrNr = /* Vertical Diffusivity */
(PID.TID 0000.0001)    35 @  1.000000000000000E-05              /* K =  1: 35 */
(PID.TID 0000.0001)     ;
(PID.TID 0000.0001) PTRACERS_useGMRedi = /* apply GM-Redi */
(PID.TID 0000.0001)                   F
(PID.TID 0000.0001)     ;
(PID.TID 0000.0001) PTRACERS_useKPP = /* apply KPP scheme */
(PID.TID 0000.0001)                   F
(PID.TID 0000.0001)     ;
(PID.TID 0000.0001) PTRACERS_ref = /* Reference vertical profile */
(PID.TID 0000.0001)    35 @  0.000000000000000E+00              /* K =  1: 35 */
(PID.TID 0000.0001)     ;
(PID.TID 0000.0001) PTRACERS_EvPrRn =/* tracer conc. in Evap. & Rain */
(PID.TID 0000.0001)                 1.234567000000000E+05
(PID.TID 0000.0001)     ;
(PID.TID 0000.0001)  -----------------------------------
(PID.TID 0000.0001)  tracer number :    7
(PID.TID 0000.0001) PTRACERS_ioLabel = /* tracer IO Label */
(PID.TID 0000.0001)               '07'
(PID.TID 0000.0001)     ;
(PID.TID 0000.0001) PTRACERS_advScheme = /* Advection Scheme */
(PID.TID 0000.0001)                      33
(PID.TID 0000.0001)     ;
(PID.TID 0000.0001) PTRACERS_ImplVertAdv = /* implicit vert. advection flag */
(PID.TID 0000.0001)                   F
(PID.TID 0000.0001)     ;
(PID.TID 0000.0001) PTRACERS_diffKh = /* Laplacian Diffusivity */
(PID.TID 0000.0001)                 0.000000000000000E+00
(PID.TID 0000.0001)     ;
(PID.TID 0000.0001) PTRACERS_diffK4 = /* Biharmonic Diffusivity */
(PID.TID 0000.0001)                 0.000000000000000E+00
(PID.TID 0000.0001)     ;
(PID.TID 0000.0001) PTRACERS_diffKrNr = /* Vertical Diffusivity */
(PID.TID 0000.0001)    35 @  1.000000000000000E-05              /* K =  1: 35 */
(PID.TID 0000.0001)     ;
(PID.TID 0000.0001) PTRACERS_useGMRedi = /* apply GM-Redi */
(PID.TID 0000.0001)                   F
(PID.TID 0000.0001)     ;
(PID.TID 0000.0001) PTRACERS_useKPP = /* apply KPP scheme */
(PID.TID 0000.0001)                   F
(PID.TID 0000.0001)     ;
(PID.TID 0000.0001) PTRACERS_ref = /* Reference vertical profile */
(PID.TID 0000.0001)    35 @  0.000000000000000E+00              /* K =  1: 35 */
(PID.TID 0000.0001)     ;
(PID.TID 0000.0001) PTRACERS_EvPrRn =/* tracer conc. in Evap. & Rain */
(PID.TID 0000.0001)                 1.234567000000000E+05
(PID.TID 0000.0001)     ;
(PID.TID 0000.0001)  -----------------------------------
(PID.TID 0000.0001)  tracer number :    8
(PID.TID 0000.0001) PTRACERS_ioLabel = /* tracer IO Label */
(PID.TID 0000.0001)               '08'
(PID.TID 0000.0001)     ;
(PID.TID 0000.0001) PTRACERS_advScheme = /* Advection Scheme */
(PID.TID 0000.0001)                      33
(PID.TID 0000.0001)     ;
(PID.TID 0000.0001) PTRACERS_ImplVertAdv = /* implicit vert. advection flag */
(PID.TID 0000.0001)                   F
(PID.TID 0000.0001)     ;
(PID.TID 0000.0001) PTRACERS_diffKh = /* Laplacian Diffusivity */
(PID.TID 0000.0001)                 0.000000000000000E+00
(PID.TID 0000.0001)     ;
(PID.TID 0000.0001) PTRACERS_diffK4 = /* Biharmonic Diffusivity */
(PID.TID 0000.0001)                 0.000000000000000E+00
(PID.TID 0000.0001)     ;
(PID.TID 0000.0001) PTRACERS_diffKrNr = /* Vertical Diffusivity */
(PID.TID 0000.0001)    35 @  1.000000000000000E-05              /* K =  1: 35 */
(PID.TID 0000.0001)     ;
(PID.TID 0000.0001) PTRACERS_useGMRedi = /* apply GM-Redi */
(PID.TID 0000.0001)                   F
(PID.TID 0000.0001)     ;
(PID.TID 0000.0001) PTRACERS_useKPP = /* apply KPP scheme */
(PID.TID 0000.0001)                   F
(PID.TID 0000.0001)     ;
(PID.TID 0000.0001) PTRACERS_ref = /* Reference vertical profile */
(PID.TID 0000.0001)    35 @  0.000000000000000E+00              /* K =  1: 35 */
(PID.TID 0000.0001)     ;
(PID.TID 0000.0001) PTRACERS_EvPrRn =/* tracer conc. in Evap. & Rain */
(PID.TID 0000.0001)                 1.234567000000000E+05
(PID.TID 0000.0001)     ;
(PID.TID 0000.0001)  -----------------------------------
(PID.TID 0000.0001)  tracer number :    9
(PID.TID 0000.0001) PTRACERS_ioLabel = /* tracer IO Label */
(PID.TID 0000.0001)               '09'
(PID.TID 0000.0001)     ;
(PID.TID 0000.0001) PTRACERS_advScheme = /* Advection Scheme */
(PID.TID 0000.0001)                      33
(PID.TID 0000.0001)     ;
(PID.TID 0000.0001) PTRACERS_ImplVertAdv = /* implicit vert. advection flag */
(PID.TID 0000.0001)                   F
(PID.TID 0000.0001)     ;
(PID.TID 0000.0001) PTRACERS_diffKh = /* Laplacian Diffusivity */
(PID.TID 0000.0001)                 0.000000000000000E+00
(PID.TID 0000.0001)     ;
(PID.TID 0000.0001) PTRACERS_diffK4 = /* Biharmonic Diffusivity */
(PID.TID 0000.0001)                 0.000000000000000E+00
(PID.TID 0000.0001)     ;
(PID.TID 0000.0001) PTRACERS_diffKrNr = /* Vertical Diffusivity */
(PID.TID 0000.0001)    35 @  1.000000000000000E-05              /* K =  1: 35 */
(PID.TID 0000.0001)     ;
(PID.TID 0000.0001) PTRACERS_useGMRedi = /* apply GM-Redi */
(PID.TID 0000.0001)                   F
(PID.TID 0000.0001)     ;
(PID.TID 0000.0001) PTRACERS_useKPP = /* apply KPP scheme */
(PID.TID 0000.0001)                   F
(PID.TID 0000.0001)     ;
(PID.TID 0000.0001) PTRACERS_ref = /* Reference vertical profile */
(PID.TID 0000.0001)    35 @  0.000000000000000E+00              /* K =  1: 35 */
(PID.TID 0000.0001)     ;
(PID.TID 0000.0001) PTRACERS_EvPrRn =/* tracer conc. in Evap. & Rain */
(PID.TID 0000.0001)                 1.234567000000000E+05
(PID.TID 0000.0001)     ;
(PID.TID 0000.0001)  -----------------------------------
(PID.TID 0000.0001)  tracer number :   10
(PID.TID 0000.0001) PTRACERS_ioLabel = /* tracer IO Label */
(PID.TID 0000.0001)               '10'
(PID.TID 0000.0001)     ;
(PID.TID 0000.0001) PTRACERS_advScheme = /* Advection Scheme */
(PID.TID 0000.0001)                      33
(PID.TID 0000.0001)     ;
(PID.TID 0000.0001) PTRACERS_ImplVertAdv = /* implicit vert. advection flag */
(PID.TID 0000.0001)                   F
(PID.TID 0000.0001)     ;
(PID.TID 0000.0001) PTRACERS_diffKh = /* Laplacian Diffusivity */
(PID.TID 0000.0001)                 0.000000000000000E+00
(PID.TID 0000.0001)     ;
(PID.TID 0000.0001) PTRACERS_diffK4 = /* Biharmonic Diffusivity */
(PID.TID 0000.0001)                 0.000000000000000E+00
(PID.TID 0000.0001)     ;
(PID.TID 0000.0001) PTRACERS_diffKrNr = /* Vertical Diffusivity */
(PID.TID 0000.0001)    35 @  1.000000000000000E-05              /* K =  1: 35 */
(PID.TID 0000.0001)     ;
(PID.TID 0000.0001) PTRACERS_useGMRedi = /* apply GM-Redi */
(PID.TID 0000.0001)                   F
(PID.TID 0000.0001)     ;
(PID.TID 0000.0001) PTRACERS_useKPP = /* apply KPP scheme */
(PID.TID 0000.0001)                   F
(PID.TID 0000.0001)     ;
(PID.TID 0000.0001) PTRACERS_ref = /* Reference vertical profile */
(PID.TID 0000.0001)    35 @  0.000000000000000E+00              /* K =  1: 35 */
(PID.TID 0000.0001)     ;
(PID.TID 0000.0001) PTRACERS_EvPrRn =/* tracer conc. in Evap. & Rain */
(PID.TID 0000.0001)                 1.234567000000000E+05
(PID.TID 0000.0001)     ;
(PID.TID 0000.0001)  -----------------------------------
(PID.TID 0000.0001)  tracer number :   11
(PID.TID 0000.0001) PTRACERS_ioLabel = /* tracer IO Label */
(PID.TID 0000.0001)               '11'
(PID.TID 0000.0001)     ;
(PID.TID 0000.0001) PTRACERS_advScheme = /* Advection Scheme */
(PID.TID 0000.0001)                      33
(PID.TID 0000.0001)     ;
(PID.TID 0000.0001) PTRACERS_ImplVertAdv = /* implicit vert. advection flag */
(PID.TID 0000.0001)                   F
(PID.TID 0000.0001)     ;
(PID.TID 0000.0001) PTRACERS_diffKh = /* Laplacian Diffusivity */
(PID.TID 0000.0001)                 0.000000000000000E+00
(PID.TID 0000.0001)     ;
(PID.TID 0000.0001) PTRACERS_diffK4 = /* Biharmonic Diffusivity */
(PID.TID 0000.0001)                 0.000000000000000E+00
(PID.TID 0000.0001)     ;
(PID.TID 0000.0001) PTRACERS_diffKrNr = /* Vertical Diffusivity */
(PID.TID 0000.0001)    35 @  1.000000000000000E-05              /* K =  1: 35 */
(PID.TID 0000.0001)     ;
(PID.TID 0000.0001) PTRACERS_useGMRedi = /* apply GM-Redi */
(PID.TID 0000.0001)                   F
(PID.TID 0000.0001)     ;
(PID.TID 0000.0001) PTRACERS_useKPP = /* apply KPP scheme */
(PID.TID 0000.0001)                   F
(PID.TID 0000.0001)     ;
(PID.TID 0000.0001) PTRACERS_ref = /* Reference vertical profile */
(PID.TID 0000.0001)    35 @  0.000000000000000E+00              /* K =  1: 35 */
(PID.TID 0000.0001)     ;
(PID.TID 0000.0001) PTRACERS_EvPrRn =/* tracer conc. in Evap. & Rain */
(PID.TID 0000.0001)                 1.234567000000000E+05
(PID.TID 0000.0001)     ;
(PID.TID 0000.0001)  -----------------------------------
(PID.TID 0000.0001)  tracer number :   12
(PID.TID 0000.0001) PTRACERS_ioLabel = /* tracer IO Label */
(PID.TID 0000.0001)               '12'
(PID.TID 0000.0001)     ;
(PID.TID 0000.0001) PTRACERS_advScheme = /* Advection Scheme */
(PID.TID 0000.0001)                      33
(PID.TID 0000.0001)     ;
(PID.TID 0000.0001) PTRACERS_ImplVertAdv = /* implicit vert. advection flag */
(PID.TID 0000.0001)                   F
(PID.TID 0000.0001)     ;
(PID.TID 0000.0001) PTRACERS_diffKh = /* Laplacian Diffusivity */
(PID.TID 0000.0001)                 0.000000000000000E+00
(PID.TID 0000.0001)     ;
(PID.TID 0000.0001) PTRACERS_diffK4 = /* Biharmonic Diffusivity */
(PID.TID 0000.0001)                 0.000000000000000E+00
(PID.TID 0000.0001)     ;
(PID.TID 0000.0001) PTRACERS_diffKrNr = /* Vertical Diffusivity */
(PID.TID 0000.0001)    35 @  1.000000000000000E-05              /* K =  1: 35 */
(PID.TID 0000.0001)     ;
(PID.TID 0000.0001) PTRACERS_useGMRedi = /* apply GM-Redi */
(PID.TID 0000.0001)                   F
(PID.TID 0000.0001)     ;
(PID.TID 0000.0001) PTRACERS_useKPP = /* apply KPP scheme */
(PID.TID 0000.0001)                   F
(PID.TID 0000.0001)     ;
(PID.TID 0000.0001) PTRACERS_ref = /* Reference vertical profile */
(PID.TID 0000.0001)    35 @  0.000000000000000E+00              /* K =  1: 35 */
(PID.TID 0000.0001)     ;
(PID.TID 0000.0001) PTRACERS_EvPrRn =/* tracer conc. in Evap. & Rain */
(PID.TID 0000.0001)                 1.234567000000000E+05
(PID.TID 0000.0001)     ;
(PID.TID 0000.0001)  -----------------------------------
(PID.TID 0000.0001)  tracer number :   13
(PID.TID 0000.0001) PTRACERS_ioLabel = /* tracer IO Label */
(PID.TID 0000.0001)               '13'
(PID.TID 0000.0001)     ;
(PID.TID 0000.0001) PTRACERS_advScheme = /* Advection Scheme */
(PID.TID 0000.0001)                      33
(PID.TID 0000.0001)     ;
(PID.TID 0000.0001) PTRACERS_ImplVertAdv = /* implicit vert. advection flag */
(PID.TID 0000.0001)                   F
(PID.TID 0000.0001)     ;
(PID.TID 0000.0001) PTRACERS_diffKh = /* Laplacian Diffusivity */
(PID.TID 0000.0001)                 0.000000000000000E+00
(PID.TID 0000.0001)     ;
(PID.TID 0000.0001) PTRACERS_diffK4 = /* Biharmonic Diffusivity */
(PID.TID 0000.0001)                 0.000000000000000E+00
(PID.TID 0000.0001)     ;
(PID.TID 0000.0001) PTRACERS_diffKrNr = /* Vertical Diffusivity */
(PID.TID 0000.0001)    35 @  1.000000000000000E-05              /* K =  1: 35 */
(PID.TID 0000.0001)     ;
(PID.TID 0000.0001) PTRACERS_useGMRedi = /* apply GM-Redi */
(PID.TID 0000.0001)                   F
(PID.TID 0000.0001)     ;
(PID.TID 0000.0001) PTRACERS_useKPP = /* apply KPP scheme */
(PID.TID 0000.0001)                   F
(PID.TID 0000.0001)     ;
(PID.TID 0000.0001) PTRACERS_ref = /* Reference vertical profile */
(PID.TID 0000.0001)    35 @  0.000000000000000E+00              /* K =  1: 35 */
(PID.TID 0000.0001)     ;
(PID.TID 0000.0001) PTRACERS_EvPrRn =/* tracer conc. in Evap. & Rain */
(PID.TID 0000.0001)                 1.234567000000000E+05
(PID.TID 0000.0001)     ;
(PID.TID 0000.0001)  -----------------------------------
(PID.TID 0000.0001)  tracer number :   14
(PID.TID 0000.0001) PTRACERS_ioLabel = /* tracer IO Label */
(PID.TID 0000.0001)               '14'
(PID.TID 0000.0001)     ;
(PID.TID 0000.0001) PTRACERS_advScheme = /* Advection Scheme */
(PID.TID 0000.0001)                      33
(PID.TID 0000.0001)     ;
(PID.TID 0000.0001) PTRACERS_ImplVertAdv = /* implicit vert. advection flag */
(PID.TID 0000.0001)                   F
(PID.TID 0000.0001)     ;
(PID.TID 0000.0001) PTRACERS_diffKh = /* Laplacian Diffusivity */
(PID.TID 0000.0001)                 0.000000000000000E+00
(PID.TID 0000.0001)     ;
(PID.TID 0000.0001) PTRACERS_diffK4 = /* Biharmonic Diffusivity */
(PID.TID 0000.0001)                 0.000000000000000E+00
(PID.TID 0000.0001)     ;
(PID.TID 0000.0001) PTRACERS_diffKrNr = /* Vertical Diffusivity */
(PID.TID 0000.0001)    35 @  1.000000000000000E-05              /* K =  1: 35 */
(PID.TID 0000.0001)     ;
(PID.TID 0000.0001) PTRACERS_useGMRedi = /* apply GM-Redi */
(PID.TID 0000.0001)                   F
(PID.TID 0000.0001)     ;
(PID.TID 0000.0001) PTRACERS_useKPP = /* apply KPP scheme */
(PID.TID 0000.0001)                   F
(PID.TID 0000.0001)     ;
(PID.TID 0000.0001) PTRACERS_ref = /* Reference vertical profile */
(PID.TID 0000.0001)    35 @  0.000000000000000E+00              /* K =  1: 35 */
(PID.TID 0000.0001)     ;
(PID.TID 0000.0001) PTRACERS_EvPrRn =/* tracer conc. in Evap. & Rain */
(PID.TID 0000.0001)                 1.234567000000000E+05
(PID.TID 0000.0001)     ;
(PID.TID 0000.0001)  -----------------------------------
(PID.TID 0000.0001)  tracer number :   15
(PID.TID 0000.0001) PTRACERS_ioLabel = /* tracer IO Label */
(PID.TID 0000.0001)               '15'
(PID.TID 0000.0001)     ;
(PID.TID 0000.0001) PTRACERS_advScheme = /* Advection Scheme */
(PID.TID 0000.0001)                      33
(PID.TID 0000.0001)     ;
(PID.TID 0000.0001) PTRACERS_ImplVertAdv = /* implicit vert. advection flag */
(PID.TID 0000.0001)                   F
(PID.TID 0000.0001)     ;
(PID.TID 0000.0001) PTRACERS_diffKh = /* Laplacian Diffusivity */
(PID.TID 0000.0001)                 0.000000000000000E+00
(PID.TID 0000.0001)     ;
(PID.TID 0000.0001) PTRACERS_diffK4 = /* Biharmonic Diffusivity */
(PID.TID 0000.0001)                 0.000000000000000E+00
(PID.TID 0000.0001)     ;
(PID.TID 0000.0001) PTRACERS_diffKrNr = /* Vertical Diffusivity */
(PID.TID 0000.0001)    35 @  1.000000000000000E-05              /* K =  1: 35 */
(PID.TID 0000.0001)     ;
(PID.TID 0000.0001) PTRACERS_useGMRedi = /* apply GM-Redi */
(PID.TID 0000.0001)                   F
(PID.TID 0000.0001)     ;
(PID.TID 0000.0001) PTRACERS_useKPP = /* apply KPP scheme */
(PID.TID 0000.0001)                   F
(PID.TID 0000.0001)     ;
(PID.TID 0000.0001) PTRACERS_ref = /* Reference vertical profile */
(PID.TID 0000.0001)    35 @  0.000000000000000E+00              /* K =  1: 35 */
(PID.TID 0000.0001)     ;
(PID.TID 0000.0001) PTRACERS_EvPrRn =/* tracer conc. in Evap. & Rain */
(PID.TID 0000.0001)                 1.234567000000000E+05
(PID.TID 0000.0001)     ;
(PID.TID 0000.0001)  -----------------------------------
(PID.TID 0000.0001)  tracer number :   16
(PID.TID 0000.0001) PTRACERS_ioLabel = /* tracer IO Label */
(PID.TID 0000.0001)               '16'
(PID.TID 0000.0001)     ;
(PID.TID 0000.0001) PTRACERS_advScheme = /* Advection Scheme */
(PID.TID 0000.0001)                      33
(PID.TID 0000.0001)     ;
(PID.TID 0000.0001) PTRACERS_ImplVertAdv = /* implicit vert. advection flag */
(PID.TID 0000.0001)                   F
(PID.TID 0000.0001)     ;
(PID.TID 0000.0001) PTRACERS_diffKh = /* Laplacian Diffusivity */
(PID.TID 0000.0001)                 0.000000000000000E+00
(PID.TID 0000.0001)     ;
(PID.TID 0000.0001) PTRACERS_diffK4 = /* Biharmonic Diffusivity */
(PID.TID 0000.0001)                 0.000000000000000E+00
(PID.TID 0000.0001)     ;
(PID.TID 0000.0001) PTRACERS_diffKrNr = /* Vertical Diffusivity */
(PID.TID 0000.0001)    35 @  1.000000000000000E-05              /* K =  1: 35 */
(PID.TID 0000.0001)     ;
(PID.TID 0000.0001) PTRACERS_useGMRedi = /* apply GM-Redi */
(PID.TID 0000.0001)                   F
(PID.TID 0000.0001)     ;
(PID.TID 0000.0001) PTRACERS_useKPP = /* apply KPP scheme */
(PID.TID 0000.0001)                   F
(PID.TID 0000.0001)     ;
(PID.TID 0000.0001) PTRACERS_ref = /* Reference vertical profile */
(PID.TID 0000.0001)    35 @  0.000000000000000E+00              /* K =  1: 35 */
(PID.TID 0000.0001)     ;
(PID.TID 0000.0001) PTRACERS_EvPrRn =/* tracer conc. in Evap. & Rain */
(PID.TID 0000.0001)                 1.234567000000000E+05
(PID.TID 0000.0001)     ;
(PID.TID 0000.0001)  -----------------------------------
(PID.TID 0000.0001)  tracer number :   17
(PID.TID 0000.0001) PTRACERS_ioLabel = /* tracer IO Label */
(PID.TID 0000.0001)               '17'
(PID.TID 0000.0001)     ;
(PID.TID 0000.0001) PTRACERS_advScheme = /* Advection Scheme */
(PID.TID 0000.0001)                      33
(PID.TID 0000.0001)     ;
(PID.TID 0000.0001) PTRACERS_ImplVertAdv = /* implicit vert. advection flag */
(PID.TID 0000.0001)                   F
(PID.TID 0000.0001)     ;
(PID.TID 0000.0001) PTRACERS_diffKh = /* Laplacian Diffusivity */
(PID.TID 0000.0001)                 0.000000000000000E+00
(PID.TID 0000.0001)     ;
(PID.TID 0000.0001) PTRACERS_diffK4 = /* Biharmonic Diffusivity */
(PID.TID 0000.0001)                 0.000000000000000E+00
(PID.TID 0000.0001)     ;
(PID.TID 0000.0001) PTRACERS_diffKrNr = /* Vertical Diffusivity */
(PID.TID 0000.0001)    35 @  1.000000000000000E-05              /* K =  1: 35 */
(PID.TID 0000.0001)     ;
(PID.TID 0000.0001) PTRACERS_useGMRedi = /* apply GM-Redi */
(PID.TID 0000.0001)                   F
(PID.TID 0000.0001)     ;
(PID.TID 0000.0001) PTRACERS_useKPP = /* apply KPP scheme */
(PID.TID 0000.0001)                   F
(PID.TID 0000.0001)     ;
(PID.TID 0000.0001) PTRACERS_ref = /* Reference vertical profile */
(PID.TID 0000.0001)    35 @  0.000000000000000E+00              /* K =  1: 35 */
(PID.TID 0000.0001)     ;
(PID.TID 0000.0001) PTRACERS_EvPrRn =/* tracer conc. in Evap. & Rain */
(PID.TID 0000.0001)                 1.234567000000000E+05
(PID.TID 0000.0001)     ;
(PID.TID 0000.0001)  -----------------------------------
(PID.TID 0000.0001)  tracer number :   18
(PID.TID 0000.0001) PTRACERS_ioLabel = /* tracer IO Label */
(PID.TID 0000.0001)               '18'
(PID.TID 0000.0001)     ;
(PID.TID 0000.0001) PTRACERS_advScheme = /* Advection Scheme */
(PID.TID 0000.0001)                      33
(PID.TID 0000.0001)     ;
(PID.TID 0000.0001) PTRACERS_ImplVertAdv = /* implicit vert. advection flag */
(PID.TID 0000.0001)                   F
(PID.TID 0000.0001)     ;
(PID.TID 0000.0001) PTRACERS_diffKh = /* Laplacian Diffusivity */
(PID.TID 0000.0001)                 0.000000000000000E+00
(PID.TID 0000.0001)     ;
(PID.TID 0000.0001) PTRACERS_diffK4 = /* Biharmonic Diffusivity */
(PID.TID 0000.0001)                 0.000000000000000E+00
(PID.TID 0000.0001)     ;
(PID.TID 0000.0001) PTRACERS_diffKrNr = /* Vertical Diffusivity */
(PID.TID 0000.0001)    35 @  1.000000000000000E-05              /* K =  1: 35 */
(PID.TID 0000.0001)     ;
(PID.TID 0000.0001) PTRACERS_useGMRedi = /* apply GM-Redi */
(PID.TID 0000.0001)                   F
(PID.TID 0000.0001)     ;
(PID.TID 0000.0001) PTRACERS_useKPP = /* apply KPP scheme */
(PID.TID 0000.0001)                   F
(PID.TID 0000.0001)     ;
(PID.TID 0000.0001) PTRACERS_ref = /* Reference vertical profile */
(PID.TID 0000.0001)    35 @  0.000000000000000E+00              /* K =  1: 35 */
(PID.TID 0000.0001)     ;
(PID.TID 0000.0001) PTRACERS_EvPrRn =/* tracer conc. in Evap. & Rain */
(PID.TID 0000.0001)                 1.234567000000000E+05
(PID.TID 0000.0001)     ;
(PID.TID 0000.0001)  -----------------------------------
(PID.TID 0000.0001)  tracer number :   19
(PID.TID 0000.0001) PTRACERS_ioLabel = /* tracer IO Label */
(PID.TID 0000.0001)               '19'
(PID.TID 0000.0001)     ;
(PID.TID 0000.0001) PTRACERS_advScheme = /* Advection Scheme */
(PID.TID 0000.0001)                      33
(PID.TID 0000.0001)     ;
(PID.TID 0000.0001) PTRACERS_ImplVertAdv = /* implicit vert. advection flag */
(PID.TID 0000.0001)                   F
(PID.TID 0000.0001)     ;
(PID.TID 0000.0001) PTRACERS_diffKh = /* Laplacian Diffusivity */
(PID.TID 0000.0001)                 0.000000000000000E+00
(PID.TID 0000.0001)     ;
(PID.TID 0000.0001) PTRACERS_diffK4 = /* Biharmonic Diffusivity */
(PID.TID 0000.0001)                 0.000000000000000E+00
(PID.TID 0000.0001)     ;
(PID.TID 0000.0001) PTRACERS_diffKrNr = /* Vertical Diffusivity */
(PID.TID 0000.0001)    35 @  1.000000000000000E-05              /* K =  1: 35 */
(PID.TID 0000.0001)     ;
(PID.TID 0000.0001) PTRACERS_useGMRedi = /* apply GM-Redi */
(PID.TID 0000.0001)                   F
(PID.TID 0000.0001)     ;
(PID.TID 0000.0001) PTRACERS_useKPP = /* apply KPP scheme */
(PID.TID 0000.0001)                   F
(PID.TID 0000.0001)     ;
(PID.TID 0000.0001) PTRACERS_ref = /* Reference vertical profile */
(PID.TID 0000.0001)    35 @  0.000000000000000E+00              /* K =  1: 35 */
(PID.TID 0000.0001)     ;
(PID.TID 0000.0001) PTRACERS_EvPrRn =/* tracer conc. in Evap. & Rain */
(PID.TID 0000.0001)                 1.234567000000000E+05
(PID.TID 0000.0001)     ;
(PID.TID 0000.0001)  -----------------------------------
(PID.TID 0000.0001)  tracer number :   20
(PID.TID 0000.0001) PTRACERS_ioLabel = /* tracer IO Label */
(PID.TID 0000.0001)               '20'
(PID.TID 0000.0001)     ;
(PID.TID 0000.0001) PTRACERS_advScheme = /* Advection Scheme */
(PID.TID 0000.0001)                      33
(PID.TID 0000.0001)     ;
(PID.TID 0000.0001) PTRACERS_ImplVertAdv = /* implicit vert. advection flag */
(PID.TID 0000.0001)                   F
(PID.TID 0000.0001)     ;
(PID.TID 0000.0001) PTRACERS_diffKh = /* Laplacian Diffusivity */
(PID.TID 0000.0001)                 0.000000000000000E+00
(PID.TID 0000.0001)     ;
(PID.TID 0000.0001) PTRACERS_diffK4 = /* Biharmonic Diffusivity */
(PID.TID 0000.0001)                 0.000000000000000E+00
(PID.TID 0000.0001)     ;
(PID.TID 0000.0001) PTRACERS_diffKrNr = /* Vertical Diffusivity */
(PID.TID 0000.0001)    35 @  1.000000000000000E-05              /* K =  1: 35 */
(PID.TID 0000.0001)     ;
(PID.TID 0000.0001) PTRACERS_useGMRedi = /* apply GM-Redi */
(PID.TID 0000.0001)                   F
(PID.TID 0000.0001)     ;
(PID.TID 0000.0001) PTRACERS_useKPP = /* apply KPP scheme */
(PID.TID 0000.0001)                   F
(PID.TID 0000.0001)     ;
(PID.TID 0000.0001) PTRACERS_ref = /* Reference vertical profile */
(PID.TID 0000.0001)    35 @  0.000000000000000E+00              /* K =  1: 35 */
(PID.TID 0000.0001)     ;
(PID.TID 0000.0001) PTRACERS_EvPrRn =/* tracer conc. in Evap. & Rain */
(PID.TID 0000.0001)                 1.234567000000000E+05
(PID.TID 0000.0001)     ;
(PID.TID 0000.0001)  -----------------------------------
(PID.TID 0000.0001)  tracer number :   21
(PID.TID 0000.0001) PTRACERS_ioLabel = /* tracer IO Label */
(PID.TID 0000.0001)               '21'
(PID.TID 0000.0001)     ;
(PID.TID 0000.0001) PTRACERS_advScheme = /* Advection Scheme */
(PID.TID 0000.0001)                      33
(PID.TID 0000.0001)     ;
(PID.TID 0000.0001) PTRACERS_ImplVertAdv = /* implicit vert. advection flag */
(PID.TID 0000.0001)                   F
(PID.TID 0000.0001)     ;
(PID.TID 0000.0001) PTRACERS_diffKh = /* Laplacian Diffusivity */
(PID.TID 0000.0001)                 0.000000000000000E+00
(PID.TID 0000.0001)     ;
(PID.TID 0000.0001) PTRACERS_diffK4 = /* Biharmonic Diffusivity */
(PID.TID 0000.0001)                 0.000000000000000E+00
(PID.TID 0000.0001)     ;
(PID.TID 0000.0001) PTRACERS_diffKrNr = /* Vertical Diffusivity */
(PID.TID 0000.0001)    35 @  1.000000000000000E-05              /* K =  1: 35 */
(PID.TID 0000.0001)     ;
(PID.TID 0000.0001) PTRACERS_useGMRedi = /* apply GM-Redi */
(PID.TID 0000.0001)                   F
(PID.TID 0000.0001)     ;
(PID.TID 0000.0001) PTRACERS_useKPP = /* apply KPP scheme */
(PID.TID 0000.0001)                   F
(PID.TID 0000.0001)     ;
(PID.TID 0000.0001) PTRACERS_ref = /* Reference vertical profile */
(PID.TID 0000.0001)    35 @  0.000000000000000E+00              /* K =  1: 35 */
(PID.TID 0000.0001)     ;
(PID.TID 0000.0001) PTRACERS_EvPrRn =/* tracer conc. in Evap. & Rain */
(PID.TID 0000.0001)                 1.234567000000000E+05
(PID.TID 0000.0001)     ;
(PID.TID 0000.0001)  -----------------------------------
(PID.TID 0000.0001)  tracer number :   22
(PID.TID 0000.0001) PTRACERS_ioLabel = /* tracer IO Label */
(PID.TID 0000.0001)               '22'
(PID.TID 0000.0001)     ;
(PID.TID 0000.0001) PTRACERS_advScheme = /* Advection Scheme */
(PID.TID 0000.0001)                      33
(PID.TID 0000.0001)     ;
(PID.TID 0000.0001) PTRACERS_ImplVertAdv = /* implicit vert. advection flag */
(PID.TID 0000.0001)                   F
(PID.TID 0000.0001)     ;
(PID.TID 0000.0001) PTRACERS_diffKh = /* Laplacian Diffusivity */
(PID.TID 0000.0001)                 0.000000000000000E+00
(PID.TID 0000.0001)     ;
(PID.TID 0000.0001) PTRACERS_diffK4 = /* Biharmonic Diffusivity */
(PID.TID 0000.0001)                 0.000000000000000E+00
(PID.TID 0000.0001)     ;
(PID.TID 0000.0001) PTRACERS_diffKrNr = /* Vertical Diffusivity */
(PID.TID 0000.0001)    35 @  1.000000000000000E-05              /* K =  1: 35 */
(PID.TID 0000.0001)     ;
(PID.TID 0000.0001) PTRACERS_useGMRedi = /* apply GM-Redi */
(PID.TID 0000.0001)                   F
(PID.TID 0000.0001)     ;
(PID.TID 0000.0001) PTRACERS_useKPP = /* apply KPP scheme */
(PID.TID 0000.0001)                   F
(PID.TID 0000.0001)     ;
(PID.TID 0000.0001) PTRACERS_ref = /* Reference vertical profile */
(PID.TID 0000.0001)    35 @  0.000000000000000E+00              /* K =  1: 35 */
(PID.TID 0000.0001)     ;
(PID.TID 0000.0001) PTRACERS_EvPrRn =/* tracer conc. in Evap. & Rain */
(PID.TID 0000.0001)                 1.234567000000000E+05
(PID.TID 0000.0001)     ;
(PID.TID 0000.0001)  -----------------------------------
(PID.TID 0000.0001)  tracer number :   23
(PID.TID 0000.0001) PTRACERS_ioLabel = /* tracer IO Label */
(PID.TID 0000.0001)               '23'
(PID.TID 0000.0001)     ;
(PID.TID 0000.0001) PTRACERS_advScheme = /* Advection Scheme */
(PID.TID 0000.0001)                      33
(PID.TID 0000.0001)     ;
(PID.TID 0000.0001) PTRACERS_ImplVertAdv = /* implicit vert. advection flag */
(PID.TID 0000.0001)                   F
(PID.TID 0000.0001)     ;
(PID.TID 0000.0001) PTRACERS_diffKh = /* Laplacian Diffusivity */
(PID.TID 0000.0001)                 0.000000000000000E+00
(PID.TID 0000.0001)     ;
(PID.TID 0000.0001) PTRACERS_diffK4 = /* Biharmonic Diffusivity */
(PID.TID 0000.0001)                 0.000000000000000E+00
(PID.TID 0000.0001)     ;
(PID.TID 0000.0001) PTRACERS_diffKrNr = /* Vertical Diffusivity */
(PID.TID 0000.0001)    35 @  1.000000000000000E-05              /* K =  1: 35 */
(PID.TID 0000.0001)     ;
(PID.TID 0000.0001) PTRACERS_useGMRedi = /* apply GM-Redi */
(PID.TID 0000.0001)                   F
(PID.TID 0000.0001)     ;
(PID.TID 0000.0001) PTRACERS_useKPP = /* apply KPP scheme */
(PID.TID 0000.0001)                   F
(PID.TID 0000.0001)     ;
(PID.TID 0000.0001) PTRACERS_ref = /* Reference vertical profile */
(PID.TID 0000.0001)    35 @  0.000000000000000E+00              /* K =  1: 35 */
(PID.TID 0000.0001)     ;
(PID.TID 0000.0001) PTRACERS_EvPrRn =/* tracer conc. in Evap. & Rain */
(PID.TID 0000.0001)                 1.234567000000000E+05
(PID.TID 0000.0001)     ;
(PID.TID 0000.0001)  -----------------------------------
(PID.TID 0000.0001)  tracer number :   24
(PID.TID 0000.0001) PTRACERS_ioLabel = /* tracer IO Label */
(PID.TID 0000.0001)               '24'
(PID.TID 0000.0001)     ;
(PID.TID 0000.0001) PTRACERS_advScheme = /* Advection Scheme */
(PID.TID 0000.0001)                      33
(PID.TID 0000.0001)     ;
(PID.TID 0000.0001) PTRACERS_ImplVertAdv = /* implicit vert. advection flag */
(PID.TID 0000.0001)                   F
(PID.TID 0000.0001)     ;
(PID.TID 0000.0001) PTRACERS_diffKh = /* Laplacian Diffusivity */
(PID.TID 0000.0001)                 0.000000000000000E+00
(PID.TID 0000.0001)     ;
(PID.TID 0000.0001) PTRACERS_diffK4 = /* Biharmonic Diffusivity */
(PID.TID 0000.0001)                 0.000000000000000E+00
(PID.TID 0000.0001)     ;
(PID.TID 0000.0001) PTRACERS_diffKrNr = /* Vertical Diffusivity */
(PID.TID 0000.0001)    35 @  1.000000000000000E-05              /* K =  1: 35 */
(PID.TID 0000.0001)     ;
(PID.TID 0000.0001) PTRACERS_useGMRedi = /* apply GM-Redi */
(PID.TID 0000.0001)                   F
(PID.TID 0000.0001)     ;
(PID.TID 0000.0001) PTRACERS_useKPP = /* apply KPP scheme */
(PID.TID 0000.0001)                   F
(PID.TID 0000.0001)     ;
(PID.TID 0000.0001) PTRACERS_ref = /* Reference vertical profile */
(PID.TID 0000.0001)    35 @  0.000000000000000E+00              /* K =  1: 35 */
(PID.TID 0000.0001)     ;
(PID.TID 0000.0001) PTRACERS_EvPrRn =/* tracer conc. in Evap. & Rain */
(PID.TID 0000.0001)                 1.234567000000000E+05
(PID.TID 0000.0001)     ;
(PID.TID 0000.0001)  -----------------------------------
(PID.TID 0000.0001)  tracer number :   25
(PID.TID 0000.0001) PTRACERS_ioLabel = /* tracer IO Label */
(PID.TID 0000.0001)               '25'
(PID.TID 0000.0001)     ;
(PID.TID 0000.0001) PTRACERS_advScheme = /* Advection Scheme */
(PID.TID 0000.0001)                      33
(PID.TID 0000.0001)     ;
(PID.TID 0000.0001) PTRACERS_ImplVertAdv = /* implicit vert. advection flag */
(PID.TID 0000.0001)                   F
(PID.TID 0000.0001)     ;
(PID.TID 0000.0001) PTRACERS_diffKh = /* Laplacian Diffusivity */
(PID.TID 0000.0001)                 0.000000000000000E+00
(PID.TID 0000.0001)     ;
(PID.TID 0000.0001) PTRACERS_diffK4 = /* Biharmonic Diffusivity */
(PID.TID 0000.0001)                 0.000000000000000E+00
(PID.TID 0000.0001)     ;
(PID.TID 0000.0001) PTRACERS_diffKrNr = /* Vertical Diffusivity */
(PID.TID 0000.0001)    35 @  1.000000000000000E-05              /* K =  1: 35 */
(PID.TID 0000.0001)     ;
(PID.TID 0000.0001) PTRACERS_useGMRedi = /* apply GM-Redi */
(PID.TID 0000.0001)                   F
(PID.TID 0000.0001)     ;
(PID.TID 0000.0001) PTRACERS_useKPP = /* apply KPP scheme */
(PID.TID 0000.0001)                   F
(PID.TID 0000.0001)     ;
(PID.TID 0000.0001) PTRACERS_ref = /* Reference vertical profile */
(PID.TID 0000.0001)    35 @  0.000000000000000E+00              /* K =  1: 35 */
(PID.TID 0000.0001)     ;
(PID.TID 0000.0001) PTRACERS_EvPrRn =/* tracer conc. in Evap. & Rain */
(PID.TID 0000.0001)                 1.234567000000000E+05
(PID.TID 0000.0001)     ;
(PID.TID 0000.0001)  -----------------------------------
(PID.TID 0000.0001)  tracer number :   26
(PID.TID 0000.0001) PTRACERS_ioLabel = /* tracer IO Label */
(PID.TID 0000.0001)               '26'
(PID.TID 0000.0001)     ;
(PID.TID 0000.0001) PTRACERS_advScheme = /* Advection Scheme */
(PID.TID 0000.0001)                      33
(PID.TID 0000.0001)     ;
(PID.TID 0000.0001) PTRACERS_ImplVertAdv = /* implicit vert. advection flag */
(PID.TID 0000.0001)                   F
(PID.TID 0000.0001)     ;
(PID.TID 0000.0001) PTRACERS_diffKh = /* Laplacian Diffusivity */
(PID.TID 0000.0001)                 0.000000000000000E+00
(PID.TID 0000.0001)     ;
(PID.TID 0000.0001) PTRACERS_diffK4 = /* Biharmonic Diffusivity */
(PID.TID 0000.0001)                 0.000000000000000E+00
(PID.TID 0000.0001)     ;
(PID.TID 0000.0001) PTRACERS_diffKrNr = /* Vertical Diffusivity */
(PID.TID 0000.0001)    35 @  1.000000000000000E-05              /* K =  1: 35 */
(PID.TID 0000.0001)     ;
(PID.TID 0000.0001) PTRACERS_useGMRedi = /* apply GM-Redi */
(PID.TID 0000.0001)                   F
(PID.TID 0000.0001)     ;
(PID.TID 0000.0001) PTRACERS_useKPP = /* apply KPP scheme */
(PID.TID 0000.0001)                   F
(PID.TID 0000.0001)     ;
(PID.TID 0000.0001) PTRACERS_ref = /* Reference vertical profile */
(PID.TID 0000.0001)    35 @  0.000000000000000E+00              /* K =  1: 35 */
(PID.TID 0000.0001)     ;
(PID.TID 0000.0001) PTRACERS_EvPrRn =/* tracer conc. in Evap. & Rain */
(PID.TID 0000.0001)                 1.234567000000000E+05
(PID.TID 0000.0001)     ;
(PID.TID 0000.0001)  -----------------------------------
(PID.TID 0000.0001)  tracer number :   27
(PID.TID 0000.0001) PTRACERS_ioLabel = /* tracer IO Label */
(PID.TID 0000.0001)               '27'
(PID.TID 0000.0001)     ;
(PID.TID 0000.0001) PTRACERS_advScheme = /* Advection Scheme */
(PID.TID 0000.0001)                      33
(PID.TID 0000.0001)     ;
(PID.TID 0000.0001) PTRACERS_ImplVertAdv = /* implicit vert. advection flag */
(PID.TID 0000.0001)                   F
(PID.TID 0000.0001)     ;
(PID.TID 0000.0001) PTRACERS_diffKh = /* Laplacian Diffusivity */
(PID.TID 0000.0001)                 0.000000000000000E+00
(PID.TID 0000.0001)     ;
(PID.TID 0000.0001) PTRACERS_diffK4 = /* Biharmonic Diffusivity */
(PID.TID 0000.0001)                 0.000000000000000E+00
(PID.TID 0000.0001)     ;
(PID.TID 0000.0001) PTRACERS_diffKrNr = /* Vertical Diffusivity */
(PID.TID 0000.0001)    35 @  1.000000000000000E-05              /* K =  1: 35 */
(PID.TID 0000.0001)     ;
(PID.TID 0000.0001) PTRACERS_useGMRedi = /* apply GM-Redi */
(PID.TID 0000.0001)                   F
(PID.TID 0000.0001)     ;
(PID.TID 0000.0001) PTRACERS_useKPP = /* apply KPP scheme */
(PID.TID 0000.0001)                   F
(PID.TID 0000.0001)     ;
(PID.TID 0000.0001) PTRACERS_ref = /* Reference vertical profile */
(PID.TID 0000.0001)    35 @  0.000000000000000E+00              /* K =  1: 35 */
(PID.TID 0000.0001)     ;
(PID.TID 0000.0001) PTRACERS_EvPrRn =/* tracer conc. in Evap. & Rain */
(PID.TID 0000.0001)                 1.234567000000000E+05
(PID.TID 0000.0001)     ;
(PID.TID 0000.0001)  -----------------------------------
(PID.TID 0000.0001)  tracer number :   28
(PID.TID 0000.0001) PTRACERS_ioLabel = /* tracer IO Label */
(PID.TID 0000.0001)               '28'
(PID.TID 0000.0001)     ;
(PID.TID 0000.0001) PTRACERS_advScheme = /* Advection Scheme */
(PID.TID 0000.0001)                      33
(PID.TID 0000.0001)     ;
(PID.TID 0000.0001) PTRACERS_ImplVertAdv = /* implicit vert. advection flag */
(PID.TID 0000.0001)                   F
(PID.TID 0000.0001)     ;
(PID.TID 0000.0001) PTRACERS_diffKh = /* Laplacian Diffusivity */
(PID.TID 0000.0001)                 0.000000000000000E+00
(PID.TID 0000.0001)     ;
(PID.TID 0000.0001) PTRACERS_diffK4 = /* Biharmonic Diffusivity */
(PID.TID 0000.0001)                 0.000000000000000E+00
(PID.TID 0000.0001)     ;
(PID.TID 0000.0001) PTRACERS_diffKrNr = /* Vertical Diffusivity */
(PID.TID 0000.0001)    35 @  1.000000000000000E-05              /* K =  1: 35 */
(PID.TID 0000.0001)     ;
(PID.TID 0000.0001) PTRACERS_useGMRedi = /* apply GM-Redi */
(PID.TID 0000.0001)                   F
(PID.TID 0000.0001)     ;
(PID.TID 0000.0001) PTRACERS_useKPP = /* apply KPP scheme */
(PID.TID 0000.0001)                   F
(PID.TID 0000.0001)     ;
(PID.TID 0000.0001) PTRACERS_ref = /* Reference vertical profile */
(PID.TID 0000.0001)    35 @  0.000000000000000E+00              /* K =  1: 35 */
(PID.TID 0000.0001)     ;
(PID.TID 0000.0001) PTRACERS_EvPrRn =/* tracer conc. in Evap. & Rain */
(PID.TID 0000.0001)                 1.234567000000000E+05
(PID.TID 0000.0001)     ;
(PID.TID 0000.0001)  -----------------------------------
(PID.TID 0000.0001)  tracer number :   29
(PID.TID 0000.0001) PTRACERS_ioLabel = /* tracer IO Label */
(PID.TID 0000.0001)               '29'
(PID.TID 0000.0001)     ;
(PID.TID 0000.0001) PTRACERS_advScheme = /* Advection Scheme */
(PID.TID 0000.0001)                      33
(PID.TID 0000.0001)     ;
(PID.TID 0000.0001) PTRACERS_ImplVertAdv = /* implicit vert. advection flag */
(PID.TID 0000.0001)                   F
(PID.TID 0000.0001)     ;
(PID.TID 0000.0001) PTRACERS_diffKh = /* Laplacian Diffusivity */
(PID.TID 0000.0001)                 0.000000000000000E+00
(PID.TID 0000.0001)     ;
(PID.TID 0000.0001) PTRACERS_diffK4 = /* Biharmonic Diffusivity */
(PID.TID 0000.0001)                 0.000000000000000E+00
(PID.TID 0000.0001)     ;
(PID.TID 0000.0001) PTRACERS_diffKrNr = /* Vertical Diffusivity */
(PID.TID 0000.0001)    35 @  1.000000000000000E-05              /* K =  1: 35 */
(PID.TID 0000.0001)     ;
(PID.TID 0000.0001) PTRACERS_useGMRedi = /* apply GM-Redi */
(PID.TID 0000.0001)                   F
(PID.TID 0000.0001)     ;
(PID.TID 0000.0001) PTRACERS_useKPP = /* apply KPP scheme */
(PID.TID 0000.0001)                   F
(PID.TID 0000.0001)     ;
(PID.TID 0000.0001) PTRACERS_ref = /* Reference vertical profile */
(PID.TID 0000.0001)    35 @  0.000000000000000E+00              /* K =  1: 35 */
(PID.TID 0000.0001)     ;
(PID.TID 0000.0001) PTRACERS_EvPrRn =/* tracer conc. in Evap. & Rain */
(PID.TID 0000.0001)                 1.234567000000000E+05
(PID.TID 0000.0001)     ;
(PID.TID 0000.0001)  -----------------------------------
(PID.TID 0000.0001)  tracer number :   30
(PID.TID 0000.0001) PTRACERS_ioLabel = /* tracer IO Label */
(PID.TID 0000.0001)               '30'
(PID.TID 0000.0001)     ;
(PID.TID 0000.0001) PTRACERS_advScheme = /* Advection Scheme */
(PID.TID 0000.0001)                      33
(PID.TID 0000.0001)     ;
(PID.TID 0000.0001) PTRACERS_ImplVertAdv = /* implicit vert. advection flag */
(PID.TID 0000.0001)                   F
(PID.TID 0000.0001)     ;
(PID.TID 0000.0001) PTRACERS_diffKh = /* Laplacian Diffusivity */
(PID.TID 0000.0001)                 0.000000000000000E+00
(PID.TID 0000.0001)     ;
(PID.TID 0000.0001) PTRACERS_diffK4 = /* Biharmonic Diffusivity */
(PID.TID 0000.0001)                 0.000000000000000E+00
(PID.TID 0000.0001)     ;
(PID.TID 0000.0001) PTRACERS_diffKrNr = /* Vertical Diffusivity */
(PID.TID 0000.0001)    35 @  1.000000000000000E-05              /* K =  1: 35 */
(PID.TID 0000.0001)     ;
(PID.TID 0000.0001) PTRACERS_useGMRedi = /* apply GM-Redi */
(PID.TID 0000.0001)                   F
(PID.TID 0000.0001)     ;
(PID.TID 0000.0001) PTRACERS_useKPP = /* apply KPP scheme */
(PID.TID 0000.0001)                   F
(PID.TID 0000.0001)     ;
(PID.TID 0000.0001) PTRACERS_ref = /* Reference vertical profile */
(PID.TID 0000.0001)    35 @  0.000000000000000E+00              /* K =  1: 35 */
(PID.TID 0000.0001)     ;
(PID.TID 0000.0001) PTRACERS_EvPrRn =/* tracer conc. in Evap. & Rain */
(PID.TID 0000.0001)                 1.234567000000000E+05
(PID.TID 0000.0001)     ;
(PID.TID 0000.0001)  -----------------------------------
(PID.TID 0000.0001)  tracer number :   31
(PID.TID 0000.0001) PTRACERS_ioLabel = /* tracer IO Label */
(PID.TID 0000.0001)               '31'
(PID.TID 0000.0001)     ;
(PID.TID 0000.0001) PTRACERS_advScheme = /* Advection Scheme */
(PID.TID 0000.0001)                      33
(PID.TID 0000.0001)     ;
(PID.TID 0000.0001) PTRACERS_ImplVertAdv = /* implicit vert. advection flag */
(PID.TID 0000.0001)                   F
(PID.TID 0000.0001)     ;
(PID.TID 0000.0001) PTRACERS_diffKh = /* Laplacian Diffusivity */
(PID.TID 0000.0001)                 0.000000000000000E+00
(PID.TID 0000.0001)     ;
(PID.TID 0000.0001) PTRACERS_diffK4 = /* Biharmonic Diffusivity */
(PID.TID 0000.0001)                 0.000000000000000E+00
(PID.TID 0000.0001)     ;
(PID.TID 0000.0001) PTRACERS_diffKrNr = /* Vertical Diffusivity */
(PID.TID 0000.0001)    35 @  1.000000000000000E-05              /* K =  1: 35 */
(PID.TID 0000.0001)     ;
(PID.TID 0000.0001) PTRACERS_useGMRedi = /* apply GM-Redi */
(PID.TID 0000.0001)                   F
(PID.TID 0000.0001)     ;
(PID.TID 0000.0001) PTRACERS_useKPP = /* apply KPP scheme */
(PID.TID 0000.0001)                   F
(PID.TID 0000.0001)     ;
(PID.TID 0000.0001) PTRACERS_ref = /* Reference vertical profile */
(PID.TID 0000.0001)    35 @  0.000000000000000E+00              /* K =  1: 35 */
(PID.TID 0000.0001)     ;
(PID.TID 0000.0001) PTRACERS_EvPrRn =/* tracer conc. in Evap. & Rain */
(PID.TID 0000.0001)                 1.234567000000000E+05
(PID.TID 0000.0001)     ;
(PID.TID 0000.0001)  -----------------------------------
(PID.TID 0000.0001)  tracer number :   32
(PID.TID 0000.0001) PTRACERS_ioLabel = /* tracer IO Label */
(PID.TID 0000.0001)               '32'
(PID.TID 0000.0001)     ;
(PID.TID 0000.0001) PTRACERS_advScheme = /* Advection Scheme */
(PID.TID 0000.0001)                      33
(PID.TID 0000.0001)     ;
(PID.TID 0000.0001) PTRACERS_ImplVertAdv = /* implicit vert. advection flag */
(PID.TID 0000.0001)                   F
(PID.TID 0000.0001)     ;
(PID.TID 0000.0001) PTRACERS_diffKh = /* Laplacian Diffusivity */
(PID.TID 0000.0001)                 0.000000000000000E+00
(PID.TID 0000.0001)     ;
(PID.TID 0000.0001) PTRACERS_diffK4 = /* Biharmonic Diffusivity */
(PID.TID 0000.0001)                 0.000000000000000E+00
(PID.TID 0000.0001)     ;
(PID.TID 0000.0001) PTRACERS_diffKrNr = /* Vertical Diffusivity */
(PID.TID 0000.0001)    35 @  1.000000000000000E-05              /* K =  1: 35 */
(PID.TID 0000.0001)     ;
(PID.TID 0000.0001) PTRACERS_useGMRedi = /* apply GM-Redi */
(PID.TID 0000.0001)                   F
(PID.TID 0000.0001)     ;
(PID.TID 0000.0001) PTRACERS_useKPP = /* apply KPP scheme */
(PID.TID 0000.0001)                   F
(PID.TID 0000.0001)     ;
(PID.TID 0000.0001) PTRACERS_ref = /* Reference vertical profile */
(PID.TID 0000.0001)    35 @  0.000000000000000E+00              /* K =  1: 35 */
(PID.TID 0000.0001)     ;
(PID.TID 0000.0001) PTRACERS_EvPrRn =/* tracer conc. in Evap. & Rain */
(PID.TID 0000.0001)                 1.234567000000000E+05
(PID.TID 0000.0001)     ;
(PID.TID 0000.0001)  -----------------------------------
(PID.TID 0000.0001)  tracer number :   33
(PID.TID 0000.0001) PTRACERS_ioLabel = /* tracer IO Label */
(PID.TID 0000.0001)               '33'
(PID.TID 0000.0001)     ;
(PID.TID 0000.0001) PTRACERS_advScheme = /* Advection Scheme */
(PID.TID 0000.0001)                      33
(PID.TID 0000.0001)     ;
(PID.TID 0000.0001) PTRACERS_ImplVertAdv = /* implicit vert. advection flag */
(PID.TID 0000.0001)                   F
(PID.TID 0000.0001)     ;
(PID.TID 0000.0001) PTRACERS_diffKh = /* Laplacian Diffusivity */
(PID.TID 0000.0001)                 0.000000000000000E+00
(PID.TID 0000.0001)     ;
(PID.TID 0000.0001) PTRACERS_diffK4 = /* Biharmonic Diffusivity */
(PID.TID 0000.0001)                 0.000000000000000E+00
(PID.TID 0000.0001)     ;
(PID.TID 0000.0001) PTRACERS_diffKrNr = /* Vertical Diffusivity */
(PID.TID 0000.0001)    35 @  1.000000000000000E-05              /* K =  1: 35 */
(PID.TID 0000.0001)     ;
(PID.TID 0000.0001) PTRACERS_useGMRedi = /* apply GM-Redi */
(PID.TID 0000.0001)                   F
(PID.TID 0000.0001)     ;
(PID.TID 0000.0001) PTRACERS_useKPP = /* apply KPP scheme */
(PID.TID 0000.0001)                   F
(PID.TID 0000.0001)     ;
(PID.TID 0000.0001) PTRACERS_ref = /* Reference vertical profile */
(PID.TID 0000.0001)    35 @  0.000000000000000E+00              /* K =  1: 35 */
(PID.TID 0000.0001)     ;
(PID.TID 0000.0001) PTRACERS_EvPrRn =/* tracer conc. in Evap. & Rain */
(PID.TID 0000.0001)                 1.234567000000000E+05
(PID.TID 0000.0001)     ;
(PID.TID 0000.0001)  -----------------------------------
(PID.TID 0000.0001)  tracer number :   34
(PID.TID 0000.0001) PTRACERS_ioLabel = /* tracer IO Label */
(PID.TID 0000.0001)               '34'
(PID.TID 0000.0001)     ;
(PID.TID 0000.0001) PTRACERS_advScheme = /* Advection Scheme */
(PID.TID 0000.0001)                      33
(PID.TID 0000.0001)     ;
(PID.TID 0000.0001) PTRACERS_ImplVertAdv = /* implicit vert. advection flag */
(PID.TID 0000.0001)                   F
(PID.TID 0000.0001)     ;
(PID.TID 0000.0001) PTRACERS_diffKh = /* Laplacian Diffusivity */
(PID.TID 0000.0001)                 0.000000000000000E+00
(PID.TID 0000.0001)     ;
(PID.TID 0000.0001) PTRACERS_diffK4 = /* Biharmonic Diffusivity */
(PID.TID 0000.0001)                 0.000000000000000E+00
(PID.TID 0000.0001)     ;
(PID.TID 0000.0001) PTRACERS_diffKrNr = /* Vertical Diffusivity */
(PID.TID 0000.0001)    35 @  1.000000000000000E-05              /* K =  1: 35 */
(PID.TID 0000.0001)     ;
(PID.TID 0000.0001) PTRACERS_useGMRedi = /* apply GM-Redi */
(PID.TID 0000.0001)                   F
(PID.TID 0000.0001)     ;
(PID.TID 0000.0001) PTRACERS_useKPP = /* apply KPP scheme */
(PID.TID 0000.0001)                   F
(PID.TID 0000.0001)     ;
(PID.TID 0000.0001) PTRACERS_ref = /* Reference vertical profile */
(PID.TID 0000.0001)    35 @  0.000000000000000E+00              /* K =  1: 35 */
(PID.TID 0000.0001)     ;
(PID.TID 0000.0001) PTRACERS_EvPrRn =/* tracer conc. in Evap. & Rain */
(PID.TID 0000.0001)                 1.234567000000000E+05
(PID.TID 0000.0001)     ;
(PID.TID 0000.0001)  -----------------------------------
(PID.TID 0000.0001)  tracer number :   35
(PID.TID 0000.0001) PTRACERS_ioLabel = /* tracer IO Label */
(PID.TID 0000.0001)               '35'
(PID.TID 0000.0001)     ;
(PID.TID 0000.0001) PTRACERS_advScheme = /* Advection Scheme */
(PID.TID 0000.0001)                      33
(PID.TID 0000.0001)     ;
(PID.TID 0000.0001) PTRACERS_ImplVertAdv = /* implicit vert. advection flag */
(PID.TID 0000.0001)                   F
(PID.TID 0000.0001)     ;
(PID.TID 0000.0001) PTRACERS_diffKh = /* Laplacian Diffusivity */
(PID.TID 0000.0001)                 0.000000000000000E+00
(PID.TID 0000.0001)     ;
(PID.TID 0000.0001) PTRACERS_diffK4 = /* Biharmonic Diffusivity */
(PID.TID 0000.0001)                 0.000000000000000E+00
(PID.TID 0000.0001)     ;
(PID.TID 0000.0001) PTRACERS_diffKrNr = /* Vertical Diffusivity */
(PID.TID 0000.0001)    35 @  1.000000000000000E-05              /* K =  1: 35 */
(PID.TID 0000.0001)     ;
(PID.TID 0000.0001) PTRACERS_useGMRedi = /* apply GM-Redi */
(PID.TID 0000.0001)                   F
(PID.TID 0000.0001)     ;
(PID.TID 0000.0001) PTRACERS_useKPP = /* apply KPP scheme */
(PID.TID 0000.0001)                   F
(PID.TID 0000.0001)     ;
(PID.TID 0000.0001) PTRACERS_ref = /* Reference vertical profile */
(PID.TID 0000.0001)    35 @  0.000000000000000E+00              /* K =  1: 35 */
(PID.TID 0000.0001)     ;
(PID.TID 0000.0001) PTRACERS_EvPrRn =/* tracer conc. in Evap. & Rain */
(PID.TID 0000.0001)                 1.234567000000000E+05
(PID.TID 0000.0001)     ;
(PID.TID 0000.0001)  -----------------------------------
(PID.TID 0000.0001)  tracer number :   36
(PID.TID 0000.0001) PTRACERS_ioLabel = /* tracer IO Label */
(PID.TID 0000.0001)               '36'
(PID.TID 0000.0001)     ;
(PID.TID 0000.0001) PTRACERS_advScheme = /* Advection Scheme */
(PID.TID 0000.0001)                      33
(PID.TID 0000.0001)     ;
(PID.TID 0000.0001) PTRACERS_ImplVertAdv = /* implicit vert. advection flag */
(PID.TID 0000.0001)                   F
(PID.TID 0000.0001)     ;
(PID.TID 0000.0001) PTRACERS_diffKh = /* Laplacian Diffusivity */
(PID.TID 0000.0001)                 0.000000000000000E+00
(PID.TID 0000.0001)     ;
(PID.TID 0000.0001) PTRACERS_diffK4 = /* Biharmonic Diffusivity */
(PID.TID 0000.0001)                 0.000000000000000E+00
(PID.TID 0000.0001)     ;
(PID.TID 0000.0001) PTRACERS_diffKrNr = /* Vertical Diffusivity */
(PID.TID 0000.0001)    35 @  1.000000000000000E-05              /* K =  1: 35 */
(PID.TID 0000.0001)     ;
(PID.TID 0000.0001) PTRACERS_useGMRedi = /* apply GM-Redi */
(PID.TID 0000.0001)                   F
(PID.TID 0000.0001)     ;
(PID.TID 0000.0001) PTRACERS_useKPP = /* apply KPP scheme */
(PID.TID 0000.0001)                   F
(PID.TID 0000.0001)     ;
(PID.TID 0000.0001) PTRACERS_ref = /* Reference vertical profile */
(PID.TID 0000.0001)    35 @  0.000000000000000E+00              /* K =  1: 35 */
(PID.TID 0000.0001)     ;
(PID.TID 0000.0001) PTRACERS_EvPrRn =/* tracer conc. in Evap. & Rain */
(PID.TID 0000.0001)                 1.234567000000000E+05
(PID.TID 0000.0001)     ;
(PID.TID 0000.0001)  -----------------------------------
(PID.TID 0000.0001)  tracer number :   37
(PID.TID 0000.0001) PTRACERS_ioLabel = /* tracer IO Label */
(PID.TID 0000.0001)               '37'
(PID.TID 0000.0001)     ;
(PID.TID 0000.0001) PTRACERS_advScheme = /* Advection Scheme */
(PID.TID 0000.0001)                      33
(PID.TID 0000.0001)     ;
(PID.TID 0000.0001) PTRACERS_ImplVertAdv = /* implicit vert. advection flag */
(PID.TID 0000.0001)                   F
(PID.TID 0000.0001)     ;
(PID.TID 0000.0001) PTRACERS_diffKh = /* Laplacian Diffusivity */
(PID.TID 0000.0001)                 0.000000000000000E+00
(PID.TID 0000.0001)     ;
(PID.TID 0000.0001) PTRACERS_diffK4 = /* Biharmonic Diffusivity */
(PID.TID 0000.0001)                 0.000000000000000E+00
(PID.TID 0000.0001)     ;
(PID.TID 0000.0001) PTRACERS_diffKrNr = /* Vertical Diffusivity */
(PID.TID 0000.0001)    35 @  1.000000000000000E-05              /* K =  1: 35 */
(PID.TID 0000.0001)     ;
(PID.TID 0000.0001) PTRACERS_useGMRedi = /* apply GM-Redi */
(PID.TID 0000.0001)                   F
(PID.TID 0000.0001)     ;
(PID.TID 0000.0001) PTRACERS_useKPP = /* apply KPP scheme */
(PID.TID 0000.0001)                   F
(PID.TID 0000.0001)     ;
(PID.TID 0000.0001) PTRACERS_ref = /* Reference vertical profile */
(PID.TID 0000.0001)    35 @  0.000000000000000E+00              /* K =  1: 35 */
(PID.TID 0000.0001)     ;
(PID.TID 0000.0001) PTRACERS_EvPrRn =/* tracer conc. in Evap. & Rain */
(PID.TID 0000.0001)                 1.234567000000000E+05
(PID.TID 0000.0001)     ;
(PID.TID 0000.0001)  -----------------------------------
(PID.TID 0000.0001)  tracer number :   38
(PID.TID 0000.0001) PTRACERS_ioLabel = /* tracer IO Label */
(PID.TID 0000.0001)               '38'
(PID.TID 0000.0001)     ;
(PID.TID 0000.0001) PTRACERS_advScheme = /* Advection Scheme */
(PID.TID 0000.0001)                      33
(PID.TID 0000.0001)     ;
(PID.TID 0000.0001) PTRACERS_ImplVertAdv = /* implicit vert. advection flag */
(PID.TID 0000.0001)                   F
(PID.TID 0000.0001)     ;
(PID.TID 0000.0001) PTRACERS_diffKh = /* Laplacian Diffusivity */
(PID.TID 0000.0001)                 0.000000000000000E+00
(PID.TID 0000.0001)     ;
(PID.TID 0000.0001) PTRACERS_diffK4 = /* Biharmonic Diffusivity */
(PID.TID 0000.0001)                 0.000000000000000E+00
(PID.TID 0000.0001)     ;
(PID.TID 0000.0001) PTRACERS_diffKrNr = /* Vertical Diffusivity */
(PID.TID 0000.0001)    35 @  1.000000000000000E-05              /* K =  1: 35 */
(PID.TID 0000.0001)     ;
(PID.TID 0000.0001) PTRACERS_useGMRedi = /* apply GM-Redi */
(PID.TID 0000.0001)                   F
(PID.TID 0000.0001)     ;
(PID.TID 0000.0001) PTRACERS_useKPP = /* apply KPP scheme */
(PID.TID 0000.0001)                   F
(PID.TID 0000.0001)     ;
(PID.TID 0000.0001) PTRACERS_ref = /* Reference vertical profile */
(PID.TID 0000.0001)    35 @  0.000000000000000E+00              /* K =  1: 35 */
(PID.TID 0000.0001)     ;
(PID.TID 0000.0001) PTRACERS_EvPrRn =/* tracer conc. in Evap. & Rain */
(PID.TID 0000.0001)                 1.234567000000000E+05
(PID.TID 0000.0001)     ;
(PID.TID 0000.0001)  -----------------------------------
(PID.TID 0000.0001)  tracer number :   39
(PID.TID 0000.0001) PTRACERS_ioLabel = /* tracer IO Label */
(PID.TID 0000.0001)               '39'
(PID.TID 0000.0001)     ;
(PID.TID 0000.0001) PTRACERS_advScheme = /* Advection Scheme */
(PID.TID 0000.0001)                      33
(PID.TID 0000.0001)     ;
(PID.TID 0000.0001) PTRACERS_ImplVertAdv = /* implicit vert. advection flag */
(PID.TID 0000.0001)                   F
(PID.TID 0000.0001)     ;
(PID.TID 0000.0001) PTRACERS_diffKh = /* Laplacian Diffusivity */
(PID.TID 0000.0001)                 0.000000000000000E+00
(PID.TID 0000.0001)     ;
(PID.TID 0000.0001) PTRACERS_diffK4 = /* Biharmonic Diffusivity */
(PID.TID 0000.0001)                 0.000000000000000E+00
(PID.TID 0000.0001)     ;
(PID.TID 0000.0001) PTRACERS_diffKrNr = /* Vertical Diffusivity */
(PID.TID 0000.0001)    35 @  1.000000000000000E-05              /* K =  1: 35 */
(PID.TID 0000.0001)     ;
(PID.TID 0000.0001) PTRACERS_useGMRedi = /* apply GM-Redi */
(PID.TID 0000.0001)                   F
(PID.TID 0000.0001)     ;
(PID.TID 0000.0001) PTRACERS_useKPP = /* apply KPP scheme */
(PID.TID 0000.0001)                   F
(PID.TID 0000.0001)     ;
(PID.TID 0000.0001) PTRACERS_ref = /* Reference vertical profile */
(PID.TID 0000.0001)    35 @  0.000000000000000E+00              /* K =  1: 35 */
(PID.TID 0000.0001)     ;
(PID.TID 0000.0001) PTRACERS_EvPrRn =/* tracer conc. in Evap. & Rain */
(PID.TID 0000.0001)                 1.234567000000000E+05
(PID.TID 0000.0001)     ;
(PID.TID 0000.0001)  -----------------------------------
(PID.TID 0000.0001)  tracer number :   40
(PID.TID 0000.0001) PTRACERS_ioLabel = /* tracer IO Label */
(PID.TID 0000.0001)               '40'
(PID.TID 0000.0001)     ;
(PID.TID 0000.0001) PTRACERS_advScheme = /* Advection Scheme */
(PID.TID 0000.0001)                      33
(PID.TID 0000.0001)     ;
(PID.TID 0000.0001) PTRACERS_ImplVertAdv = /* implicit vert. advection flag */
(PID.TID 0000.0001)                   F
(PID.TID 0000.0001)     ;
(PID.TID 0000.0001) PTRACERS_diffKh = /* Laplacian Diffusivity */
(PID.TID 0000.0001)                 0.000000000000000E+00
(PID.TID 0000.0001)     ;
(PID.TID 0000.0001) PTRACERS_diffK4 = /* Biharmonic Diffusivity */
(PID.TID 0000.0001)                 0.000000000000000E+00
(PID.TID 0000.0001)     ;
(PID.TID 0000.0001) PTRACERS_diffKrNr = /* Vertical Diffusivity */
(PID.TID 0000.0001)    35 @  1.000000000000000E-05              /* K =  1: 35 */
(PID.TID 0000.0001)     ;
(PID.TID 0000.0001) PTRACERS_useGMRedi = /* apply GM-Redi */
(PID.TID 0000.0001)                   F
(PID.TID 0000.0001)     ;
(PID.TID 0000.0001) PTRACERS_useKPP = /* apply KPP scheme */
(PID.TID 0000.0001)                   F
(PID.TID 0000.0001)     ;
(PID.TID 0000.0001) PTRACERS_ref = /* Reference vertical profile */
(PID.TID 0000.0001)    35 @  0.000000000000000E+00              /* K =  1: 35 */
(PID.TID 0000.0001)     ;
(PID.TID 0000.0001) PTRACERS_EvPrRn =/* tracer conc. in Evap. & Rain */
(PID.TID 0000.0001)                 1.234567000000000E+05
(PID.TID 0000.0001)     ;
(PID.TID 0000.0001)  -----------------------------------
(PID.TID 0000.0001)  tracer number :   41
(PID.TID 0000.0001) PTRACERS_ioLabel = /* tracer IO Label */
(PID.TID 0000.0001)               '41'
(PID.TID 0000.0001)     ;
(PID.TID 0000.0001) PTRACERS_advScheme = /* Advection Scheme */
(PID.TID 0000.0001)                      33
(PID.TID 0000.0001)     ;
(PID.TID 0000.0001) PTRACERS_ImplVertAdv = /* implicit vert. advection flag */
(PID.TID 0000.0001)                   F
(PID.TID 0000.0001)     ;
(PID.TID 0000.0001) PTRACERS_diffKh = /* Laplacian Diffusivity */
(PID.TID 0000.0001)                 0.000000000000000E+00
(PID.TID 0000.0001)     ;
(PID.TID 0000.0001) PTRACERS_diffK4 = /* Biharmonic Diffusivity */
(PID.TID 0000.0001)                 0.000000000000000E+00
(PID.TID 0000.0001)     ;
(PID.TID 0000.0001) PTRACERS_diffKrNr = /* Vertical Diffusivity */
(PID.TID 0000.0001)    35 @  1.000000000000000E-05              /* K =  1: 35 */
(PID.TID 0000.0001)     ;
(PID.TID 0000.0001) PTRACERS_useGMRedi = /* apply GM-Redi */
(PID.TID 0000.0001)                   F
(PID.TID 0000.0001)     ;
(PID.TID 0000.0001) PTRACERS_useKPP = /* apply KPP scheme */
(PID.TID 0000.0001)                   F
(PID.TID 0000.0001)     ;
(PID.TID 0000.0001) PTRACERS_ref = /* Reference vertical profile */
(PID.TID 0000.0001)    35 @  0.000000000000000E+00              /* K =  1: 35 */
(PID.TID 0000.0001)     ;
(PID.TID 0000.0001) PTRACERS_EvPrRn =/* tracer conc. in Evap. & Rain */
(PID.TID 0000.0001)                 1.234567000000000E+05
(PID.TID 0000.0001)     ;
(PID.TID 0000.0001)  -----------------------------------
(PID.TID 0000.0001)  tracer number :   42
(PID.TID 0000.0001) PTRACERS_ioLabel = /* tracer IO Label */
(PID.TID 0000.0001)               '42'
(PID.TID 0000.0001)     ;
(PID.TID 0000.0001) PTRACERS_advScheme = /* Advection Scheme */
(PID.TID 0000.0001)                      33
(PID.TID 0000.0001)     ;
(PID.TID 0000.0001) PTRACERS_ImplVertAdv = /* implicit vert. advection flag */
(PID.TID 0000.0001)                   F
(PID.TID 0000.0001)     ;
(PID.TID 0000.0001) PTRACERS_diffKh = /* Laplacian Diffusivity */
(PID.TID 0000.0001)                 0.000000000000000E+00
(PID.TID 0000.0001)     ;
(PID.TID 0000.0001) PTRACERS_diffK4 = /* Biharmonic Diffusivity */
(PID.TID 0000.0001)                 0.000000000000000E+00
(PID.TID 0000.0001)     ;
(PID.TID 0000.0001) PTRACERS_diffKrNr = /* Vertical Diffusivity */
(PID.TID 0000.0001)    35 @  1.000000000000000E-05              /* K =  1: 35 */
(PID.TID 0000.0001)     ;
(PID.TID 0000.0001) PTRACERS_useGMRedi = /* apply GM-Redi */
(PID.TID 0000.0001)                   F
(PID.TID 0000.0001)     ;
(PID.TID 0000.0001) PTRACERS_useKPP = /* apply KPP scheme */
(PID.TID 0000.0001)                   F
(PID.TID 0000.0001)     ;
(PID.TID 0000.0001) PTRACERS_ref = /* Reference vertical profile */
(PID.TID 0000.0001)    35 @  0.000000000000000E+00              /* K =  1: 35 */
(PID.TID 0000.0001)     ;
(PID.TID 0000.0001) PTRACERS_EvPrRn =/* tracer conc. in Evap. & Rain */
(PID.TID 0000.0001)                 1.234567000000000E+05
(PID.TID 0000.0001)     ;
(PID.TID 0000.0001)  -----------------------------------
(PID.TID 0000.0001)  tracer number :   43
(PID.TID 0000.0001) PTRACERS_ioLabel = /* tracer IO Label */
(PID.TID 0000.0001)               '43'
(PID.TID 0000.0001)     ;
(PID.TID 0000.0001) PTRACERS_advScheme = /* Advection Scheme */
(PID.TID 0000.0001)                      33
(PID.TID 0000.0001)     ;
(PID.TID 0000.0001) PTRACERS_ImplVertAdv = /* implicit vert. advection flag */
(PID.TID 0000.0001)                   F
(PID.TID 0000.0001)     ;
(PID.TID 0000.0001) PTRACERS_diffKh = /* Laplacian Diffusivity */
(PID.TID 0000.0001)                 0.000000000000000E+00
(PID.TID 0000.0001)     ;
(PID.TID 0000.0001) PTRACERS_diffK4 = /* Biharmonic Diffusivity */
(PID.TID 0000.0001)                 0.000000000000000E+00
(PID.TID 0000.0001)     ;
(PID.TID 0000.0001) PTRACERS_diffKrNr = /* Vertical Diffusivity */
(PID.TID 0000.0001)    35 @  1.000000000000000E-05              /* K =  1: 35 */
(PID.TID 0000.0001)     ;
(PID.TID 0000.0001) PTRACERS_useGMRedi = /* apply GM-Redi */
(PID.TID 0000.0001)                   F
(PID.TID 0000.0001)     ;
(PID.TID 0000.0001) PTRACERS_useKPP = /* apply KPP scheme */
(PID.TID 0000.0001)                   F
(PID.TID 0000.0001)     ;
(PID.TID 0000.0001) PTRACERS_ref = /* Reference vertical profile */
(PID.TID 0000.0001)    35 @  0.000000000000000E+00              /* K =  1: 35 */
(PID.TID 0000.0001)     ;
(PID.TID 0000.0001) PTRACERS_EvPrRn =/* tracer conc. in Evap. & Rain */
(PID.TID 0000.0001)                 1.234567000000000E+05
(PID.TID 0000.0001)     ;
(PID.TID 0000.0001)  -----------------------------------
(PID.TID 0000.0001)  tracer number :   44
(PID.TID 0000.0001) PTRACERS_ioLabel = /* tracer IO Label */
(PID.TID 0000.0001)               '44'
(PID.TID 0000.0001)     ;
(PID.TID 0000.0001) PTRACERS_advScheme = /* Advection Scheme */
(PID.TID 0000.0001)                      33
(PID.TID 0000.0001)     ;
(PID.TID 0000.0001) PTRACERS_ImplVertAdv = /* implicit vert. advection flag */
(PID.TID 0000.0001)                   F
(PID.TID 0000.0001)     ;
(PID.TID 0000.0001) PTRACERS_diffKh = /* Laplacian Diffusivity */
(PID.TID 0000.0001)                 0.000000000000000E+00
(PID.TID 0000.0001)     ;
(PID.TID 0000.0001) PTRACERS_diffK4 = /* Biharmonic Diffusivity */
(PID.TID 0000.0001)                 0.000000000000000E+00
(PID.TID 0000.0001)     ;
(PID.TID 0000.0001) PTRACERS_diffKrNr = /* Vertical Diffusivity */
(PID.TID 0000.0001)    35 @  1.000000000000000E-05              /* K =  1: 35 */
(PID.TID 0000.0001)     ;
(PID.TID 0000.0001) PTRACERS_useGMRedi = /* apply GM-Redi */
(PID.TID 0000.0001)                   F
(PID.TID 0000.0001)     ;
(PID.TID 0000.0001) PTRACERS_useKPP = /* apply KPP scheme */
(PID.TID 0000.0001)                   F
(PID.TID 0000.0001)     ;
(PID.TID 0000.0001) PTRACERS_ref = /* Reference vertical profile */
(PID.TID 0000.0001)    35 @  0.000000000000000E+00              /* K =  1: 35 */
(PID.TID 0000.0001)     ;
(PID.TID 0000.0001) PTRACERS_EvPrRn =/* tracer conc. in Evap. & Rain */
(PID.TID 0000.0001)                 1.234567000000000E+05
(PID.TID 0000.0001)     ;
(PID.TID 0000.0001)  -----------------------------------
(PID.TID 0000.0001)  tracer number :   45
(PID.TID 0000.0001) PTRACERS_ioLabel = /* tracer IO Label */
(PID.TID 0000.0001)               '45'
(PID.TID 0000.0001)     ;
(PID.TID 0000.0001) PTRACERS_advScheme = /* Advection Scheme */
(PID.TID 0000.0001)                      33
(PID.TID 0000.0001)     ;
(PID.TID 0000.0001) PTRACERS_ImplVertAdv = /* implicit vert. advection flag */
(PID.TID 0000.0001)                   F
(PID.TID 0000.0001)     ;
(PID.TID 0000.0001) PTRACERS_diffKh = /* Laplacian Diffusivity */
(PID.TID 0000.0001)                 0.000000000000000E+00
(PID.TID 0000.0001)     ;
(PID.TID 0000.0001) PTRACERS_diffK4 = /* Biharmonic Diffusivity */
(PID.TID 0000.0001)                 0.000000000000000E+00
(PID.TID 0000.0001)     ;
(PID.TID 0000.0001) PTRACERS_diffKrNr = /* Vertical Diffusivity */
(PID.TID 0000.0001)    35 @  1.000000000000000E-05              /* K =  1: 35 */
(PID.TID 0000.0001)     ;
(PID.TID 0000.0001) PTRACERS_useGMRedi = /* apply GM-Redi */
(PID.TID 0000.0001)                   F
(PID.TID 0000.0001)     ;
(PID.TID 0000.0001) PTRACERS_useKPP = /* apply KPP scheme */
(PID.TID 0000.0001)                   F
(PID.TID 0000.0001)     ;
(PID.TID 0000.0001) PTRACERS_ref = /* Reference vertical profile */
(PID.TID 0000.0001)    35 @  0.000000000000000E+00              /* K =  1: 35 */
(PID.TID 0000.0001)     ;
(PID.TID 0000.0001) PTRACERS_EvPrRn =/* tracer conc. in Evap. & Rain */
(PID.TID 0000.0001)                 1.234567000000000E+05
(PID.TID 0000.0001)     ;
(PID.TID 0000.0001)  -----------------------------------
(PID.TID 0000.0001)  tracer number :   46
(PID.TID 0000.0001) PTRACERS_ioLabel = /* tracer IO Label */
(PID.TID 0000.0001)               '46'
(PID.TID 0000.0001)     ;
(PID.TID 0000.0001) PTRACERS_advScheme = /* Advection Scheme */
(PID.TID 0000.0001)                      33
(PID.TID 0000.0001)     ;
(PID.TID 0000.0001) PTRACERS_ImplVertAdv = /* implicit vert. advection flag */
(PID.TID 0000.0001)                   F
(PID.TID 0000.0001)     ;
(PID.TID 0000.0001) PTRACERS_diffKh = /* Laplacian Diffusivity */
(PID.TID 0000.0001)                 0.000000000000000E+00
(PID.TID 0000.0001)     ;
(PID.TID 0000.0001) PTRACERS_diffK4 = /* Biharmonic Diffusivity */
(PID.TID 0000.0001)                 0.000000000000000E+00
(PID.TID 0000.0001)     ;
(PID.TID 0000.0001) PTRACERS_diffKrNr = /* Vertical Diffusivity */
(PID.TID 0000.0001)    35 @  1.000000000000000E-05              /* K =  1: 35 */
(PID.TID 0000.0001)     ;
(PID.TID 0000.0001) PTRACERS_useGMRedi = /* apply GM-Redi */
(PID.TID 0000.0001)                   F
(PID.TID 0000.0001)     ;
(PID.TID 0000.0001) PTRACERS_useKPP = /* apply KPP scheme */
(PID.TID 0000.0001)                   F
(PID.TID 0000.0001)     ;
(PID.TID 0000.0001) PTRACERS_ref = /* Reference vertical profile */
(PID.TID 0000.0001)    35 @  0.000000000000000E+00              /* K =  1: 35 */
(PID.TID 0000.0001)     ;
(PID.TID 0000.0001) PTRACERS_EvPrRn =/* tracer conc. in Evap. & Rain */
(PID.TID 0000.0001)                 1.234567000000000E+05
(PID.TID 0000.0001)     ;
(PID.TID 0000.0001)  -----------------------------------
(PID.TID 0000.0001)  tracer number :   47
(PID.TID 0000.0001) PTRACERS_ioLabel = /* tracer IO Label */
(PID.TID 0000.0001)               '47'
(PID.TID 0000.0001)     ;
(PID.TID 0000.0001) PTRACERS_advScheme = /* Advection Scheme */
(PID.TID 0000.0001)                      33
(PID.TID 0000.0001)     ;
(PID.TID 0000.0001) PTRACERS_ImplVertAdv = /* implicit vert. advection flag */
(PID.TID 0000.0001)                   F
(PID.TID 0000.0001)     ;
(PID.TID 0000.0001) PTRACERS_diffKh = /* Laplacian Diffusivity */
(PID.TID 0000.0001)                 0.000000000000000E+00
(PID.TID 0000.0001)     ;
(PID.TID 0000.0001) PTRACERS_diffK4 = /* Biharmonic Diffusivity */
(PID.TID 0000.0001)                 0.000000000000000E+00
(PID.TID 0000.0001)     ;
(PID.TID 0000.0001) PTRACERS_diffKrNr = /* Vertical Diffusivity */
(PID.TID 0000.0001)    35 @  1.000000000000000E-05              /* K =  1: 35 */
(PID.TID 0000.0001)     ;
(PID.TID 0000.0001) PTRACERS_useGMRedi = /* apply GM-Redi */
(PID.TID 0000.0001)                   F
(PID.TID 0000.0001)     ;
(PID.TID 0000.0001) PTRACERS_useKPP = /* apply KPP scheme */
(PID.TID 0000.0001)                   F
(PID.TID 0000.0001)     ;
(PID.TID 0000.0001) PTRACERS_ref = /* Reference vertical profile */
(PID.TID 0000.0001)    35 @  0.000000000000000E+00              /* K =  1: 35 */
(PID.TID 0000.0001)     ;
(PID.TID 0000.0001) PTRACERS_EvPrRn =/* tracer conc. in Evap. & Rain */
(PID.TID 0000.0001)                 1.234567000000000E+05
(PID.TID 0000.0001)     ;
(PID.TID 0000.0001)  -----------------------------------
(PID.TID 0000.0001)  tracer number :   48
(PID.TID 0000.0001) PTRACERS_ioLabel = /* tracer IO Label */
(PID.TID 0000.0001)               '48'
(PID.TID 0000.0001)     ;
(PID.TID 0000.0001) PTRACERS_advScheme = /* Advection Scheme */
(PID.TID 0000.0001)                      33
(PID.TID 0000.0001)     ;
(PID.TID 0000.0001) PTRACERS_ImplVertAdv = /* implicit vert. advection flag */
(PID.TID 0000.0001)                   F
(PID.TID 0000.0001)     ;
(PID.TID 0000.0001) PTRACERS_diffKh = /* Laplacian Diffusivity */
(PID.TID 0000.0001)                 0.000000000000000E+00
(PID.TID 0000.0001)     ;
(PID.TID 0000.0001) PTRACERS_diffK4 = /* Biharmonic Diffusivity */
(PID.TID 0000.0001)                 0.000000000000000E+00
(PID.TID 0000.0001)     ;
(PID.TID 0000.0001) PTRACERS_diffKrNr = /* Vertical Diffusivity */
(PID.TID 0000.0001)    35 @  1.000000000000000E-05              /* K =  1: 35 */
(PID.TID 0000.0001)     ;
(PID.TID 0000.0001) PTRACERS_useGMRedi = /* apply GM-Redi */
(PID.TID 0000.0001)                   F
(PID.TID 0000.0001)     ;
(PID.TID 0000.0001) PTRACERS_useKPP = /* apply KPP scheme */
(PID.TID 0000.0001)                   F
(PID.TID 0000.0001)     ;
(PID.TID 0000.0001) PTRACERS_ref = /* Reference vertical profile */
(PID.TID 0000.0001)    35 @  0.000000000000000E+00              /* K =  1: 35 */
(PID.TID 0000.0001)     ;
(PID.TID 0000.0001) PTRACERS_EvPrRn =/* tracer conc. in Evap. & Rain */
(PID.TID 0000.0001)                 1.234567000000000E+05
(PID.TID 0000.0001)     ;
(PID.TID 0000.0001)  -----------------------------------
(PID.TID 0000.0001)  tracer number :   49
(PID.TID 0000.0001) PTRACERS_ioLabel = /* tracer IO Label */
(PID.TID 0000.0001)               '49'
(PID.TID 0000.0001)     ;
(PID.TID 0000.0001) PTRACERS_advScheme = /* Advection Scheme */
(PID.TID 0000.0001)                      33
(PID.TID 0000.0001)     ;
(PID.TID 0000.0001) PTRACERS_ImplVertAdv = /* implicit vert. advection flag */
(PID.TID 0000.0001)                   F
(PID.TID 0000.0001)     ;
(PID.TID 0000.0001) PTRACERS_diffKh = /* Laplacian Diffusivity */
(PID.TID 0000.0001)                 0.000000000000000E+00
(PID.TID 0000.0001)     ;
(PID.TID 0000.0001) PTRACERS_diffK4 = /* Biharmonic Diffusivity */
(PID.TID 0000.0001)                 0.000000000000000E+00
(PID.TID 0000.0001)     ;
(PID.TID 0000.0001) PTRACERS_diffKrNr = /* Vertical Diffusivity */
(PID.TID 0000.0001)    35 @  1.000000000000000E-05              /* K =  1: 35 */
(PID.TID 0000.0001)     ;
(PID.TID 0000.0001) PTRACERS_useGMRedi = /* apply GM-Redi */
(PID.TID 0000.0001)                   F
(PID.TID 0000.0001)     ;
(PID.TID 0000.0001) PTRACERS_useKPP = /* apply KPP scheme */
(PID.TID 0000.0001)                   F
(PID.TID 0000.0001)     ;
(PID.TID 0000.0001) PTRACERS_ref = /* Reference vertical profile */
(PID.TID 0000.0001)    35 @  0.000000000000000E+00              /* K =  1: 35 */
(PID.TID 0000.0001)     ;
(PID.TID 0000.0001) PTRACERS_EvPrRn =/* tracer conc. in Evap. & Rain */
(PID.TID 0000.0001)                 1.234567000000000E+05
(PID.TID 0000.0001)     ;
(PID.TID 0000.0001)  -----------------------------------
(PID.TID 0000.0001)  tracer number :   50
(PID.TID 0000.0001) PTRACERS_ioLabel = /* tracer IO Label */
(PID.TID 0000.0001)               '50'
(PID.TID 0000.0001)     ;
(PID.TID 0000.0001) PTRACERS_advScheme = /* Advection Scheme */
(PID.TID 0000.0001)                      33
(PID.TID 0000.0001)     ;
(PID.TID 0000.0001) PTRACERS_ImplVertAdv = /* implicit vert. advection flag */
(PID.TID 0000.0001)                   F
(PID.TID 0000.0001)     ;
(PID.TID 0000.0001) PTRACERS_diffKh = /* Laplacian Diffusivity */
(PID.TID 0000.0001)                 0.000000000000000E+00
(PID.TID 0000.0001)     ;
(PID.TID 0000.0001) PTRACERS_diffK4 = /* Biharmonic Diffusivity */
(PID.TID 0000.0001)                 0.000000000000000E+00
(PID.TID 0000.0001)     ;
(PID.TID 0000.0001) PTRACERS_diffKrNr = /* Vertical Diffusivity */
(PID.TID 0000.0001)    35 @  1.000000000000000E-05              /* K =  1: 35 */
(PID.TID 0000.0001)     ;
(PID.TID 0000.0001) PTRACERS_useGMRedi = /* apply GM-Redi */
(PID.TID 0000.0001)                   F
(PID.TID 0000.0001)     ;
(PID.TID 0000.0001) PTRACERS_useKPP = /* apply KPP scheme */
(PID.TID 0000.0001)                   F
(PID.TID 0000.0001)     ;
(PID.TID 0000.0001) PTRACERS_ref = /* Reference vertical profile */
(PID.TID 0000.0001)    35 @  0.000000000000000E+00              /* K =  1: 35 */
(PID.TID 0000.0001)     ;
(PID.TID 0000.0001) PTRACERS_EvPrRn =/* tracer conc. in Evap. & Rain */
(PID.TID 0000.0001)                 1.234567000000000E+05
(PID.TID 0000.0001)     ;
(PID.TID 0000.0001)  -----------------------------------
(PID.TID 0000.0001)  tracer number :   51
(PID.TID 0000.0001) PTRACERS_ioLabel = /* tracer IO Label */
(PID.TID 0000.0001)               '51'
(PID.TID 0000.0001)     ;
(PID.TID 0000.0001) PTRACERS_advScheme = /* Advection Scheme */
(PID.TID 0000.0001)                      33
(PID.TID 0000.0001)     ;
(PID.TID 0000.0001) PTRACERS_ImplVertAdv = /* implicit vert. advection flag */
(PID.TID 0000.0001)                   F
(PID.TID 0000.0001)     ;
(PID.TID 0000.0001) PTRACERS_diffKh = /* Laplacian Diffusivity */
(PID.TID 0000.0001)                 0.000000000000000E+00
(PID.TID 0000.0001)     ;
(PID.TID 0000.0001) PTRACERS_diffK4 = /* Biharmonic Diffusivity */
(PID.TID 0000.0001)                 0.000000000000000E+00
(PID.TID 0000.0001)     ;
(PID.TID 0000.0001) PTRACERS_diffKrNr = /* Vertical Diffusivity */
(PID.TID 0000.0001)    35 @  1.000000000000000E-05              /* K =  1: 35 */
(PID.TID 0000.0001)     ;
(PID.TID 0000.0001) PTRACERS_useGMRedi = /* apply GM-Redi */
(PID.TID 0000.0001)                   F
(PID.TID 0000.0001)     ;
(PID.TID 0000.0001) PTRACERS_useKPP = /* apply KPP scheme */
(PID.TID 0000.0001)                   F
(PID.TID 0000.0001)     ;
(PID.TID 0000.0001) PTRACERS_ref = /* Reference vertical profile */
(PID.TID 0000.0001)    35 @  0.000000000000000E+00              /* K =  1: 35 */
(PID.TID 0000.0001)     ;
(PID.TID 0000.0001) PTRACERS_EvPrRn =/* tracer conc. in Evap. & Rain */
(PID.TID 0000.0001)                 1.234567000000000E+05
(PID.TID 0000.0001)     ;
(PID.TID 0000.0001)  -----------------------------------
(PID.TID 0000.0001)  tracer number :   52
(PID.TID 0000.0001) PTRACERS_ioLabel = /* tracer IO Label */
(PID.TID 0000.0001)               '52'
(PID.TID 0000.0001)     ;
(PID.TID 0000.0001) PTRACERS_advScheme = /* Advection Scheme */
(PID.TID 0000.0001)                      33
(PID.TID 0000.0001)     ;
(PID.TID 0000.0001) PTRACERS_ImplVertAdv = /* implicit vert. advection flag */
(PID.TID 0000.0001)                   F
(PID.TID 0000.0001)     ;
(PID.TID 0000.0001) PTRACERS_diffKh = /* Laplacian Diffusivity */
(PID.TID 0000.0001)                 0.000000000000000E+00
(PID.TID 0000.0001)     ;
(PID.TID 0000.0001) PTRACERS_diffK4 = /* Biharmonic Diffusivity */
(PID.TID 0000.0001)                 0.000000000000000E+00
(PID.TID 0000.0001)     ;
(PID.TID 0000.0001) PTRACERS_diffKrNr = /* Vertical Diffusivity */
(PID.TID 0000.0001)    35 @  1.000000000000000E-05              /* K =  1: 35 */
(PID.TID 0000.0001)     ;
(PID.TID 0000.0001) PTRACERS_useGMRedi = /* apply GM-Redi */
(PID.TID 0000.0001)                   F
(PID.TID 0000.0001)     ;
(PID.TID 0000.0001) PTRACERS_useKPP = /* apply KPP scheme */
(PID.TID 0000.0001)                   F
(PID.TID 0000.0001)     ;
(PID.TID 0000.0001) PTRACERS_ref = /* Reference vertical profile */
(PID.TID 0000.0001)    35 @  0.000000000000000E+00              /* K =  1: 35 */
(PID.TID 0000.0001)     ;
(PID.TID 0000.0001) PTRACERS_EvPrRn =/* tracer conc. in Evap. & Rain */
(PID.TID 0000.0001)                 1.234567000000000E+05
(PID.TID 0000.0001)     ;
(PID.TID 0000.0001)  -----------------------------------
(PID.TID 0000.0001)  tracer number :   53
(PID.TID 0000.0001) PTRACERS_ioLabel = /* tracer IO Label */
(PID.TID 0000.0001)               '53'
(PID.TID 0000.0001)     ;
(PID.TID 0000.0001) PTRACERS_advScheme = /* Advection Scheme */
(PID.TID 0000.0001)                      33
(PID.TID 0000.0001)     ;
(PID.TID 0000.0001) PTRACERS_ImplVertAdv = /* implicit vert. advection flag */
(PID.TID 0000.0001)                   F
(PID.TID 0000.0001)     ;
(PID.TID 0000.0001) PTRACERS_diffKh = /* Laplacian Diffusivity */
(PID.TID 0000.0001)                 0.000000000000000E+00
(PID.TID 0000.0001)     ;
(PID.TID 0000.0001) PTRACERS_diffK4 = /* Biharmonic Diffusivity */
(PID.TID 0000.0001)                 0.000000000000000E+00
(PID.TID 0000.0001)     ;
(PID.TID 0000.0001) PTRACERS_diffKrNr = /* Vertical Diffusivity */
(PID.TID 0000.0001)    35 @  1.000000000000000E-05              /* K =  1: 35 */
(PID.TID 0000.0001)     ;
(PID.TID 0000.0001) PTRACERS_useGMRedi = /* apply GM-Redi */
(PID.TID 0000.0001)                   F
(PID.TID 0000.0001)     ;
(PID.TID 0000.0001) PTRACERS_useKPP = /* apply KPP scheme */
(PID.TID 0000.0001)                   F
(PID.TID 0000.0001)     ;
(PID.TID 0000.0001) PTRACERS_ref = /* Reference vertical profile */
(PID.TID 0000.0001)    35 @  0.000000000000000E+00              /* K =  1: 35 */
(PID.TID 0000.0001)     ;
(PID.TID 0000.0001) PTRACERS_EvPrRn =/* tracer conc. in Evap. & Rain */
(PID.TID 0000.0001)                 1.234567000000000E+05
(PID.TID 0000.0001)     ;
(PID.TID 0000.0001)  -----------------------------------
(PID.TID 0000.0001)  tracer number :   54
(PID.TID 0000.0001) PTRACERS_ioLabel = /* tracer IO Label */
(PID.TID 0000.0001)               '54'
(PID.TID 0000.0001)     ;
(PID.TID 0000.0001) PTRACERS_advScheme = /* Advection Scheme */
(PID.TID 0000.0001)                      33
(PID.TID 0000.0001)     ;
(PID.TID 0000.0001) PTRACERS_ImplVertAdv = /* implicit vert. advection flag */
(PID.TID 0000.0001)                   F
(PID.TID 0000.0001)     ;
(PID.TID 0000.0001) PTRACERS_diffKh = /* Laplacian Diffusivity */
(PID.TID 0000.0001)                 0.000000000000000E+00
(PID.TID 0000.0001)     ;
(PID.TID 0000.0001) PTRACERS_diffK4 = /* Biharmonic Diffusivity */
(PID.TID 0000.0001)                 0.000000000000000E+00
(PID.TID 0000.0001)     ;
(PID.TID 0000.0001) PTRACERS_diffKrNr = /* Vertical Diffusivity */
(PID.TID 0000.0001)    35 @  1.000000000000000E-05              /* K =  1: 35 */
(PID.TID 0000.0001)     ;
(PID.TID 0000.0001) PTRACERS_useGMRedi = /* apply GM-Redi */
(PID.TID 0000.0001)                   F
(PID.TID 0000.0001)     ;
(PID.TID 0000.0001) PTRACERS_useKPP = /* apply KPP scheme */
(PID.TID 0000.0001)                   F
(PID.TID 0000.0001)     ;
(PID.TID 0000.0001) PTRACERS_ref = /* Reference vertical profile */
(PID.TID 0000.0001)    35 @  0.000000000000000E+00              /* K =  1: 35 */
(PID.TID 0000.0001)     ;
(PID.TID 0000.0001) PTRACERS_EvPrRn =/* tracer conc. in Evap. & Rain */
(PID.TID 0000.0001)                 1.234567000000000E+05
(PID.TID 0000.0001)     ;
(PID.TID 0000.0001)  -----------------------------------
(PID.TID 0000.0001)  tracer number :   55
(PID.TID 0000.0001) PTRACERS_ioLabel = /* tracer IO Label */
(PID.TID 0000.0001)               '55'
(PID.TID 0000.0001)     ;
(PID.TID 0000.0001) PTRACERS_advScheme = /* Advection Scheme */
(PID.TID 0000.0001)                      33
(PID.TID 0000.0001)     ;
(PID.TID 0000.0001) PTRACERS_ImplVertAdv = /* implicit vert. advection flag */
(PID.TID 0000.0001)                   F
(PID.TID 0000.0001)     ;
(PID.TID 0000.0001) PTRACERS_diffKh = /* Laplacian Diffusivity */
(PID.TID 0000.0001)                 0.000000000000000E+00
(PID.TID 0000.0001)     ;
(PID.TID 0000.0001) PTRACERS_diffK4 = /* Biharmonic Diffusivity */
(PID.TID 0000.0001)                 0.000000000000000E+00
(PID.TID 0000.0001)     ;
(PID.TID 0000.0001) PTRACERS_diffKrNr = /* Vertical Diffusivity */
(PID.TID 0000.0001)    35 @  1.000000000000000E-05              /* K =  1: 35 */
(PID.TID 0000.0001)     ;
(PID.TID 0000.0001) PTRACERS_useGMRedi = /* apply GM-Redi */
(PID.TID 0000.0001)                   F
(PID.TID 0000.0001)     ;
(PID.TID 0000.0001) PTRACERS_useKPP = /* apply KPP scheme */
(PID.TID 0000.0001)                   F
(PID.TID 0000.0001)     ;
(PID.TID 0000.0001) PTRACERS_ref = /* Reference vertical profile */
(PID.TID 0000.0001)    35 @  0.000000000000000E+00              /* K =  1: 35 */
(PID.TID 0000.0001)     ;
(PID.TID 0000.0001) PTRACERS_EvPrRn =/* tracer conc. in Evap. & Rain */
(PID.TID 0000.0001)                 1.234567000000000E+05
(PID.TID 0000.0001)     ;
(PID.TID 0000.0001)  -----------------------------------
(PID.TID 0000.0001)  tracer number :   56
(PID.TID 0000.0001) PTRACERS_ioLabel = /* tracer IO Label */
(PID.TID 0000.0001)               '56'
(PID.TID 0000.0001)     ;
(PID.TID 0000.0001) PTRACERS_advScheme = /* Advection Scheme */
(PID.TID 0000.0001)                      33
(PID.TID 0000.0001)     ;
(PID.TID 0000.0001) PTRACERS_ImplVertAdv = /* implicit vert. advection flag */
(PID.TID 0000.0001)                   F
(PID.TID 0000.0001)     ;
(PID.TID 0000.0001) PTRACERS_diffKh = /* Laplacian Diffusivity */
(PID.TID 0000.0001)                 0.000000000000000E+00
(PID.TID 0000.0001)     ;
(PID.TID 0000.0001) PTRACERS_diffK4 = /* Biharmonic Diffusivity */
(PID.TID 0000.0001)                 0.000000000000000E+00
(PID.TID 0000.0001)     ;
(PID.TID 0000.0001) PTRACERS_diffKrNr = /* Vertical Diffusivity */
(PID.TID 0000.0001)    35 @  1.000000000000000E-05              /* K =  1: 35 */
(PID.TID 0000.0001)     ;
(PID.TID 0000.0001) PTRACERS_useGMRedi = /* apply GM-Redi */
(PID.TID 0000.0001)                   F
(PID.TID 0000.0001)     ;
(PID.TID 0000.0001) PTRACERS_useKPP = /* apply KPP scheme */
(PID.TID 0000.0001)                   F
(PID.TID 0000.0001)     ;
(PID.TID 0000.0001) PTRACERS_ref = /* Reference vertical profile */
(PID.TID 0000.0001)    35 @  0.000000000000000E+00              /* K =  1: 35 */
(PID.TID 0000.0001)     ;
(PID.TID 0000.0001) PTRACERS_EvPrRn =/* tracer conc. in Evap. & Rain */
(PID.TID 0000.0001)                 1.234567000000000E+05
(PID.TID 0000.0001)     ;
(PID.TID 0000.0001)  -----------------------------------
(PID.TID 0000.0001)  tracer number :   57
(PID.TID 0000.0001) PTRACERS_ioLabel = /* tracer IO Label */
(PID.TID 0000.0001)               '57'
(PID.TID 0000.0001)     ;
(PID.TID 0000.0001) PTRACERS_advScheme = /* Advection Scheme */
(PID.TID 0000.0001)                      33
(PID.TID 0000.0001)     ;
(PID.TID 0000.0001) PTRACERS_ImplVertAdv = /* implicit vert. advection flag */
(PID.TID 0000.0001)                   F
(PID.TID 0000.0001)     ;
(PID.TID 0000.0001) PTRACERS_diffKh = /* Laplacian Diffusivity */
(PID.TID 0000.0001)                 0.000000000000000E+00
(PID.TID 0000.0001)     ;
(PID.TID 0000.0001) PTRACERS_diffK4 = /* Biharmonic Diffusivity */
(PID.TID 0000.0001)                 0.000000000000000E+00
(PID.TID 0000.0001)     ;
(PID.TID 0000.0001) PTRACERS_diffKrNr = /* Vertical Diffusivity */
(PID.TID 0000.0001)    35 @  1.000000000000000E-05              /* K =  1: 35 */
(PID.TID 0000.0001)     ;
(PID.TID 0000.0001) PTRACERS_useGMRedi = /* apply GM-Redi */
(PID.TID 0000.0001)                   F
(PID.TID 0000.0001)     ;
(PID.TID 0000.0001) PTRACERS_useKPP = /* apply KPP scheme */
(PID.TID 0000.0001)                   F
(PID.TID 0000.0001)     ;
(PID.TID 0000.0001) PTRACERS_ref = /* Reference vertical profile */
(PID.TID 0000.0001)    35 @  0.000000000000000E+00              /* K =  1: 35 */
(PID.TID 0000.0001)     ;
(PID.TID 0000.0001) PTRACERS_EvPrRn =/* tracer conc. in Evap. & Rain */
(PID.TID 0000.0001)                 1.234567000000000E+05
(PID.TID 0000.0001)     ;
(PID.TID 0000.0001)  -----------------------------------
(PID.TID 0000.0001)  tracer number :   58
(PID.TID 0000.0001) PTRACERS_ioLabel = /* tracer IO Label */
(PID.TID 0000.0001)               '58'
(PID.TID 0000.0001)     ;
(PID.TID 0000.0001) PTRACERS_advScheme = /* Advection Scheme */
(PID.TID 0000.0001)                      33
(PID.TID 0000.0001)     ;
(PID.TID 0000.0001) PTRACERS_ImplVertAdv = /* implicit vert. advection flag */
(PID.TID 0000.0001)                   F
(PID.TID 0000.0001)     ;
(PID.TID 0000.0001) PTRACERS_diffKh = /* Laplacian Diffusivity */
(PID.TID 0000.0001)                 0.000000000000000E+00
(PID.TID 0000.0001)     ;
(PID.TID 0000.0001) PTRACERS_diffK4 = /* Biharmonic Diffusivity */
(PID.TID 0000.0001)                 0.000000000000000E+00
(PID.TID 0000.0001)     ;
(PID.TID 0000.0001) PTRACERS_diffKrNr = /* Vertical Diffusivity */
(PID.TID 0000.0001)    35 @  1.000000000000000E-05              /* K =  1: 35 */
(PID.TID 0000.0001)     ;
(PID.TID 0000.0001) PTRACERS_useGMRedi = /* apply GM-Redi */
(PID.TID 0000.0001)                   F
(PID.TID 0000.0001)     ;
(PID.TID 0000.0001) PTRACERS_useKPP = /* apply KPP scheme */
(PID.TID 0000.0001)                   F
(PID.TID 0000.0001)     ;
(PID.TID 0000.0001) PTRACERS_ref = /* Reference vertical profile */
(PID.TID 0000.0001)    35 @  0.000000000000000E+00              /* K =  1: 35 */
(PID.TID 0000.0001)     ;
(PID.TID 0000.0001) PTRACERS_EvPrRn =/* tracer conc. in Evap. & Rain */
(PID.TID 0000.0001)                 1.234567000000000E+05
(PID.TID 0000.0001)     ;
(PID.TID 0000.0001)  -----------------------------------
(PID.TID 0000.0001)  tracer number :   59
(PID.TID 0000.0001) PTRACERS_ioLabel = /* tracer IO Label */
(PID.TID 0000.0001)               '59'
(PID.TID 0000.0001)     ;
(PID.TID 0000.0001) PTRACERS_advScheme = /* Advection Scheme */
(PID.TID 0000.0001)                      33
(PID.TID 0000.0001)     ;
(PID.TID 0000.0001) PTRACERS_ImplVertAdv = /* implicit vert. advection flag */
(PID.TID 0000.0001)                   F
(PID.TID 0000.0001)     ;
(PID.TID 0000.0001) PTRACERS_diffKh = /* Laplacian Diffusivity */
(PID.TID 0000.0001)                 0.000000000000000E+00
(PID.TID 0000.0001)     ;
(PID.TID 0000.0001) PTRACERS_diffK4 = /* Biharmonic Diffusivity */
(PID.TID 0000.0001)                 0.000000000000000E+00
(PID.TID 0000.0001)     ;
(PID.TID 0000.0001) PTRACERS_diffKrNr = /* Vertical Diffusivity */
(PID.TID 0000.0001)    35 @  1.000000000000000E-05              /* K =  1: 35 */
(PID.TID 0000.0001)     ;
(PID.TID 0000.0001) PTRACERS_useGMRedi = /* apply GM-Redi */
(PID.TID 0000.0001)                   F
(PID.TID 0000.0001)     ;
(PID.TID 0000.0001) PTRACERS_useKPP = /* apply KPP scheme */
(PID.TID 0000.0001)                   F
(PID.TID 0000.0001)     ;
(PID.TID 0000.0001) PTRACERS_ref = /* Reference vertical profile */
(PID.TID 0000.0001)    35 @  0.000000000000000E+00              /* K =  1: 35 */
(PID.TID 0000.0001)     ;
(PID.TID 0000.0001) PTRACERS_EvPrRn =/* tracer conc. in Evap. & Rain */
(PID.TID 0000.0001)                 1.234567000000000E+05
(PID.TID 0000.0001)     ;
(PID.TID 0000.0001)  -----------------------------------
(PID.TID 0000.0001)  tracer number :   60
(PID.TID 0000.0001) PTRACERS_ioLabel = /* tracer IO Label */
(PID.TID 0000.0001)               '60'
(PID.TID 0000.0001)     ;
(PID.TID 0000.0001) PTRACERS_advScheme = /* Advection Scheme */
(PID.TID 0000.0001)                      33
(PID.TID 0000.0001)     ;
(PID.TID 0000.0001) PTRACERS_ImplVertAdv = /* implicit vert. advection flag */
(PID.TID 0000.0001)                   F
(PID.TID 0000.0001)     ;
(PID.TID 0000.0001) PTRACERS_diffKh = /* Laplacian Diffusivity */
(PID.TID 0000.0001)                 0.000000000000000E+00
(PID.TID 0000.0001)     ;
(PID.TID 0000.0001) PTRACERS_diffK4 = /* Biharmonic Diffusivity */
(PID.TID 0000.0001)                 0.000000000000000E+00
(PID.TID 0000.0001)     ;
(PID.TID 0000.0001) PTRACERS_diffKrNr = /* Vertical Diffusivity */
(PID.TID 0000.0001)    35 @  1.000000000000000E-05              /* K =  1: 35 */
(PID.TID 0000.0001)     ;
(PID.TID 0000.0001) PTRACERS_useGMRedi = /* apply GM-Redi */
(PID.TID 0000.0001)                   F
(PID.TID 0000.0001)     ;
(PID.TID 0000.0001) PTRACERS_useKPP = /* apply KPP scheme */
(PID.TID 0000.0001)                   F
(PID.TID 0000.0001)     ;
(PID.TID 0000.0001) PTRACERS_ref = /* Reference vertical profile */
(PID.TID 0000.0001)    35 @  0.000000000000000E+00              /* K =  1: 35 */
(PID.TID 0000.0001)     ;
(PID.TID 0000.0001) PTRACERS_EvPrRn =/* tracer conc. in Evap. & Rain */
(PID.TID 0000.0001)                 1.234567000000000E+05
(PID.TID 0000.0001)     ;
(PID.TID 0000.0001)  -----------------------------------
(PID.TID 0000.0001)  tracer number :   61
(PID.TID 0000.0001) PTRACERS_ioLabel = /* tracer IO Label */
(PID.TID 0000.0001)               '61'
(PID.TID 0000.0001)     ;
(PID.TID 0000.0001) PTRACERS_advScheme = /* Advection Scheme */
(PID.TID 0000.0001)                      33
(PID.TID 0000.0001)     ;
(PID.TID 0000.0001) PTRACERS_ImplVertAdv = /* implicit vert. advection flag */
(PID.TID 0000.0001)                   F
(PID.TID 0000.0001)     ;
(PID.TID 0000.0001) PTRACERS_diffKh = /* Laplacian Diffusivity */
(PID.TID 0000.0001)                 0.000000000000000E+00
(PID.TID 0000.0001)     ;
(PID.TID 0000.0001) PTRACERS_diffK4 = /* Biharmonic Diffusivity */
(PID.TID 0000.0001)                 0.000000000000000E+00
(PID.TID 0000.0001)     ;
(PID.TID 0000.0001) PTRACERS_diffKrNr = /* Vertical Diffusivity */
(PID.TID 0000.0001)    35 @  1.000000000000000E-05              /* K =  1: 35 */
(PID.TID 0000.0001)     ;
(PID.TID 0000.0001) PTRACERS_useGMRedi = /* apply GM-Redi */
(PID.TID 0000.0001)                   F
(PID.TID 0000.0001)     ;
(PID.TID 0000.0001) PTRACERS_useKPP = /* apply KPP scheme */
(PID.TID 0000.0001)                   F
(PID.TID 0000.0001)     ;
(PID.TID 0000.0001) PTRACERS_ref = /* Reference vertical profile */
(PID.TID 0000.0001)    35 @  0.000000000000000E+00              /* K =  1: 35 */
(PID.TID 0000.0001)     ;
(PID.TID 0000.0001) PTRACERS_EvPrRn =/* tracer conc. in Evap. & Rain */
(PID.TID 0000.0001)                 1.234567000000000E+05
(PID.TID 0000.0001)     ;
(PID.TID 0000.0001)  -----------------------------------
(PID.TID 0000.0001)  tracer number :   62
(PID.TID 0000.0001) PTRACERS_ioLabel = /* tracer IO Label */
(PID.TID 0000.0001)               '62'
(PID.TID 0000.0001)     ;
(PID.TID 0000.0001) PTRACERS_advScheme = /* Advection Scheme */
(PID.TID 0000.0001)                      33
(PID.TID 0000.0001)     ;
(PID.TID 0000.0001) PTRACERS_ImplVertAdv = /* implicit vert. advection flag */
(PID.TID 0000.0001)                   F
(PID.TID 0000.0001)     ;
(PID.TID 0000.0001) PTRACERS_diffKh = /* Laplacian Diffusivity */
(PID.TID 0000.0001)                 0.000000000000000E+00
(PID.TID 0000.0001)     ;
(PID.TID 0000.0001) PTRACERS_diffK4 = /* Biharmonic Diffusivity */
(PID.TID 0000.0001)                 0.000000000000000E+00
(PID.TID 0000.0001)     ;
(PID.TID 0000.0001) PTRACERS_diffKrNr = /* Vertical Diffusivity */
(PID.TID 0000.0001)    35 @  1.000000000000000E-05              /* K =  1: 35 */
(PID.TID 0000.0001)     ;
(PID.TID 0000.0001) PTRACERS_useGMRedi = /* apply GM-Redi */
(PID.TID 0000.0001)                   F
(PID.TID 0000.0001)     ;
(PID.TID 0000.0001) PTRACERS_useKPP = /* apply KPP scheme */
(PID.TID 0000.0001)                   F
(PID.TID 0000.0001)     ;
(PID.TID 0000.0001) PTRACERS_ref = /* Reference vertical profile */
(PID.TID 0000.0001)    35 @  0.000000000000000E+00              /* K =  1: 35 */
(PID.TID 0000.0001)     ;
(PID.TID 0000.0001) PTRACERS_EvPrRn =/* tracer conc. in Evap. & Rain */
(PID.TID 0000.0001)                 1.234567000000000E+05
(PID.TID 0000.0001)     ;
(PID.TID 0000.0001)  -----------------------------------
(PID.TID 0000.0001)  tracer number :   63
(PID.TID 0000.0001) PTRACERS_ioLabel = /* tracer IO Label */
(PID.TID 0000.0001)               '63'
(PID.TID 0000.0001)     ;
(PID.TID 0000.0001) PTRACERS_advScheme = /* Advection Scheme */
(PID.TID 0000.0001)                      33
(PID.TID 0000.0001)     ;
(PID.TID 0000.0001) PTRACERS_ImplVertAdv = /* implicit vert. advection flag */
(PID.TID 0000.0001)                   F
(PID.TID 0000.0001)     ;
(PID.TID 0000.0001) PTRACERS_diffKh = /* Laplacian Diffusivity */
(PID.TID 0000.0001)                 0.000000000000000E+00
(PID.TID 0000.0001)     ;
(PID.TID 0000.0001) PTRACERS_diffK4 = /* Biharmonic Diffusivity */
(PID.TID 0000.0001)                 0.000000000000000E+00
(PID.TID 0000.0001)     ;
(PID.TID 0000.0001) PTRACERS_diffKrNr = /* Vertical Diffusivity */
(PID.TID 0000.0001)    35 @  1.000000000000000E-05              /* K =  1: 35 */
(PID.TID 0000.0001)     ;
(PID.TID 0000.0001) PTRACERS_useGMRedi = /* apply GM-Redi */
(PID.TID 0000.0001)                   F
(PID.TID 0000.0001)     ;
(PID.TID 0000.0001) PTRACERS_useKPP = /* apply KPP scheme */
(PID.TID 0000.0001)                   F
(PID.TID 0000.0001)     ;
(PID.TID 0000.0001) PTRACERS_ref = /* Reference vertical profile */
(PID.TID 0000.0001)    35 @  0.000000000000000E+00              /* K =  1: 35 */
(PID.TID 0000.0001)     ;
(PID.TID 0000.0001) PTRACERS_EvPrRn =/* tracer conc. in Evap. & Rain */
(PID.TID 0000.0001)                 1.234567000000000E+05
(PID.TID 0000.0001)     ;
(PID.TID 0000.0001)  -----------------------------------
(PID.TID 0000.0001)  tracer number :   64
(PID.TID 0000.0001) PTRACERS_ioLabel = /* tracer IO Label */
(PID.TID 0000.0001)               '64'
(PID.TID 0000.0001)     ;
(PID.TID 0000.0001) PTRACERS_advScheme = /* Advection Scheme */
(PID.TID 0000.0001)                      33
(PID.TID 0000.0001)     ;
(PID.TID 0000.0001) PTRACERS_ImplVertAdv = /* implicit vert. advection flag */
(PID.TID 0000.0001)                   F
(PID.TID 0000.0001)     ;
(PID.TID 0000.0001) PTRACERS_diffKh = /* Laplacian Diffusivity */
(PID.TID 0000.0001)                 0.000000000000000E+00
(PID.TID 0000.0001)     ;
(PID.TID 0000.0001) PTRACERS_diffK4 = /* Biharmonic Diffusivity */
(PID.TID 0000.0001)                 0.000000000000000E+00
(PID.TID 0000.0001)     ;
(PID.TID 0000.0001) PTRACERS_diffKrNr = /* Vertical Diffusivity */
(PID.TID 0000.0001)    35 @  1.000000000000000E-05              /* K =  1: 35 */
(PID.TID 0000.0001)     ;
(PID.TID 0000.0001) PTRACERS_useGMRedi = /* apply GM-Redi */
(PID.TID 0000.0001)                   F
(PID.TID 0000.0001)     ;
(PID.TID 0000.0001) PTRACERS_useKPP = /* apply KPP scheme */
(PID.TID 0000.0001)                   F
(PID.TID 0000.0001)     ;
(PID.TID 0000.0001) PTRACERS_ref = /* Reference vertical profile */
(PID.TID 0000.0001)    35 @  0.000000000000000E+00              /* K =  1: 35 */
(PID.TID 0000.0001)     ;
(PID.TID 0000.0001) PTRACERS_EvPrRn =/* tracer conc. in Evap. & Rain */
(PID.TID 0000.0001)                 1.234567000000000E+05
(PID.TID 0000.0001)     ;
(PID.TID 0000.0001)  -----------------------------------
(PID.TID 0000.0001)  tracer number :   65
(PID.TID 0000.0001) PTRACERS_ioLabel = /* tracer IO Label */
(PID.TID 0000.0001)               '65'
(PID.TID 0000.0001)     ;
(PID.TID 0000.0001) PTRACERS_advScheme = /* Advection Scheme */
(PID.TID 0000.0001)                      33
(PID.TID 0000.0001)     ;
(PID.TID 0000.0001) PTRACERS_ImplVertAdv = /* implicit vert. advection flag */
(PID.TID 0000.0001)                   F
(PID.TID 0000.0001)     ;
(PID.TID 0000.0001) PTRACERS_diffKh = /* Laplacian Diffusivity */
(PID.TID 0000.0001)                 0.000000000000000E+00
(PID.TID 0000.0001)     ;
(PID.TID 0000.0001) PTRACERS_diffK4 = /* Biharmonic Diffusivity */
(PID.TID 0000.0001)                 0.000000000000000E+00
(PID.TID 0000.0001)     ;
(PID.TID 0000.0001) PTRACERS_diffKrNr = /* Vertical Diffusivity */
(PID.TID 0000.0001)    35 @  1.000000000000000E-05              /* K =  1: 35 */
(PID.TID 0000.0001)     ;
(PID.TID 0000.0001) PTRACERS_useGMRedi = /* apply GM-Redi */
(PID.TID 0000.0001)                   F
(PID.TID 0000.0001)     ;
(PID.TID 0000.0001) PTRACERS_useKPP = /* apply KPP scheme */
(PID.TID 0000.0001)                   F
(PID.TID 0000.0001)     ;
(PID.TID 0000.0001) PTRACERS_ref = /* Reference vertical profile */
(PID.TID 0000.0001)    35 @  0.000000000000000E+00              /* K =  1: 35 */
(PID.TID 0000.0001)     ;
(PID.TID 0000.0001) PTRACERS_EvPrRn =/* tracer conc. in Evap. & Rain */
(PID.TID 0000.0001)                 1.234567000000000E+05
(PID.TID 0000.0001)     ;
(PID.TID 0000.0001)  -----------------------------------
(PID.TID 0000.0001)  tracer number :   66
(PID.TID 0000.0001) PTRACERS_ioLabel = /* tracer IO Label */
(PID.TID 0000.0001)               '66'
(PID.TID 0000.0001)     ;
(PID.TID 0000.0001) PTRACERS_advScheme = /* Advection Scheme */
(PID.TID 0000.0001)                      33
(PID.TID 0000.0001)     ;
(PID.TID 0000.0001) PTRACERS_ImplVertAdv = /* implicit vert. advection flag */
(PID.TID 0000.0001)                   F
(PID.TID 0000.0001)     ;
(PID.TID 0000.0001) PTRACERS_diffKh = /* Laplacian Diffusivity */
(PID.TID 0000.0001)                 0.000000000000000E+00
(PID.TID 0000.0001)     ;
(PID.TID 0000.0001) PTRACERS_diffK4 = /* Biharmonic Diffusivity */
(PID.TID 0000.0001)                 0.000000000000000E+00
(PID.TID 0000.0001)     ;
(PID.TID 0000.0001) PTRACERS_diffKrNr = /* Vertical Diffusivity */
(PID.TID 0000.0001)    35 @  1.000000000000000E-05              /* K =  1: 35 */
(PID.TID 0000.0001)     ;
(PID.TID 0000.0001) PTRACERS_useGMRedi = /* apply GM-Redi */
(PID.TID 0000.0001)                   F
(PID.TID 0000.0001)     ;
(PID.TID 0000.0001) PTRACERS_useKPP = /* apply KPP scheme */
(PID.TID 0000.0001)                   F
(PID.TID 0000.0001)     ;
(PID.TID 0000.0001) PTRACERS_ref = /* Reference vertical profile */
(PID.TID 0000.0001)    35 @  0.000000000000000E+00              /* K =  1: 35 */
(PID.TID 0000.0001)     ;
(PID.TID 0000.0001) PTRACERS_EvPrRn =/* tracer conc. in Evap. & Rain */
(PID.TID 0000.0001)                 1.234567000000000E+05
(PID.TID 0000.0001)     ;
(PID.TID 0000.0001)  -----------------------------------
(PID.TID 0000.0001)  tracer number :   67
(PID.TID 0000.0001) PTRACERS_ioLabel = /* tracer IO Label */
(PID.TID 0000.0001)               '67'
(PID.TID 0000.0001)     ;
(PID.TID 0000.0001) PTRACERS_advScheme = /* Advection Scheme */
(PID.TID 0000.0001)                      33
(PID.TID 0000.0001)     ;
(PID.TID 0000.0001) PTRACERS_ImplVertAdv = /* implicit vert. advection flag */
(PID.TID 0000.0001)                   F
(PID.TID 0000.0001)     ;
(PID.TID 0000.0001) PTRACERS_diffKh = /* Laplacian Diffusivity */
(PID.TID 0000.0001)                 0.000000000000000E+00
(PID.TID 0000.0001)     ;
(PID.TID 0000.0001) PTRACERS_diffK4 = /* Biharmonic Diffusivity */
(PID.TID 0000.0001)                 0.000000000000000E+00
(PID.TID 0000.0001)     ;
(PID.TID 0000.0001) PTRACERS_diffKrNr = /* Vertical Diffusivity */
(PID.TID 0000.0001)    35 @  1.000000000000000E-05              /* K =  1: 35 */
(PID.TID 0000.0001)     ;
(PID.TID 0000.0001) PTRACERS_useGMRedi = /* apply GM-Redi */
(PID.TID 0000.0001)                   F
(PID.TID 0000.0001)     ;
(PID.TID 0000.0001) PTRACERS_useKPP = /* apply KPP scheme */
(PID.TID 0000.0001)                   F
(PID.TID 0000.0001)     ;
(PID.TID 0000.0001) PTRACERS_ref = /* Reference vertical profile */
(PID.TID 0000.0001)    35 @  0.000000000000000E+00              /* K =  1: 35 */
(PID.TID 0000.0001)     ;
(PID.TID 0000.0001) PTRACERS_EvPrRn =/* tracer conc. in Evap. & Rain */
(PID.TID 0000.0001)                 1.234567000000000E+05
(PID.TID 0000.0001)     ;
(PID.TID 0000.0001)  -----------------------------------
(PID.TID 0000.0001)  tracer number :   68
(PID.TID 0000.0001) PTRACERS_ioLabel = /* tracer IO Label */
(PID.TID 0000.0001)               '68'
(PID.TID 0000.0001)     ;
(PID.TID 0000.0001) PTRACERS_advScheme = /* Advection Scheme */
(PID.TID 0000.0001)                      33
(PID.TID 0000.0001)     ;
(PID.TID 0000.0001) PTRACERS_ImplVertAdv = /* implicit vert. advection flag */
(PID.TID 0000.0001)                   F
(PID.TID 0000.0001)     ;
(PID.TID 0000.0001) PTRACERS_diffKh = /* Laplacian Diffusivity */
(PID.TID 0000.0001)                 0.000000000000000E+00
(PID.TID 0000.0001)     ;
(PID.TID 0000.0001) PTRACERS_diffK4 = /* Biharmonic Diffusivity */
(PID.TID 0000.0001)                 0.000000000000000E+00
(PID.TID 0000.0001)     ;
(PID.TID 0000.0001) PTRACERS_diffKrNr = /* Vertical Diffusivity */
(PID.TID 0000.0001)    35 @  1.000000000000000E-05              /* K =  1: 35 */
(PID.TID 0000.0001)     ;
(PID.TID 0000.0001) PTRACERS_useGMRedi = /* apply GM-Redi */
(PID.TID 0000.0001)                   F
(PID.TID 0000.0001)     ;
(PID.TID 0000.0001) PTRACERS_useKPP = /* apply KPP scheme */
(PID.TID 0000.0001)                   F
(PID.TID 0000.0001)     ;
(PID.TID 0000.0001) PTRACERS_ref = /* Reference vertical profile */
(PID.TID 0000.0001)    35 @  0.000000000000000E+00              /* K =  1: 35 */
(PID.TID 0000.0001)     ;
(PID.TID 0000.0001) PTRACERS_EvPrRn =/* tracer conc. in Evap. & Rain */
(PID.TID 0000.0001)                 1.234567000000000E+05
(PID.TID 0000.0001)     ;
(PID.TID 0000.0001)  -----------------------------------
(PID.TID 0000.0001)  tracer number :   69
(PID.TID 0000.0001) PTRACERS_ioLabel = /* tracer IO Label */
(PID.TID 0000.0001)               '69'
(PID.TID 0000.0001)     ;
(PID.TID 0000.0001) PTRACERS_advScheme = /* Advection Scheme */
(PID.TID 0000.0001)                      33
(PID.TID 0000.0001)     ;
(PID.TID 0000.0001) PTRACERS_ImplVertAdv = /* implicit vert. advection flag */
(PID.TID 0000.0001)                   F
(PID.TID 0000.0001)     ;
(PID.TID 0000.0001) PTRACERS_diffKh = /* Laplacian Diffusivity */
(PID.TID 0000.0001)                 0.000000000000000E+00
(PID.TID 0000.0001)     ;
(PID.TID 0000.0001) PTRACERS_diffK4 = /* Biharmonic Diffusivity */
(PID.TID 0000.0001)                 0.000000000000000E+00
(PID.TID 0000.0001)     ;
(PID.TID 0000.0001) PTRACERS_diffKrNr = /* Vertical Diffusivity */
(PID.TID 0000.0001)    35 @  1.000000000000000E-05              /* K =  1: 35 */
(PID.TID 0000.0001)     ;
(PID.TID 0000.0001) PTRACERS_useGMRedi = /* apply GM-Redi */
(PID.TID 0000.0001)                   F
(PID.TID 0000.0001)     ;
(PID.TID 0000.0001) PTRACERS_useKPP = /* apply KPP scheme */
(PID.TID 0000.0001)                   F
(PID.TID 0000.0001)     ;
(PID.TID 0000.0001) PTRACERS_ref = /* Reference vertical profile */
(PID.TID 0000.0001)    35 @  0.000000000000000E+00              /* K =  1: 35 */
(PID.TID 0000.0001)     ;
(PID.TID 0000.0001) PTRACERS_EvPrRn =/* tracer conc. in Evap. & Rain */
(PID.TID 0000.0001)                 1.234567000000000E+05
(PID.TID 0000.0001)     ;
(PID.TID 0000.0001)  -----------------------------------
(PID.TID 0000.0001)  tracer number :   70
(PID.TID 0000.0001) PTRACERS_ioLabel = /* tracer IO Label */
(PID.TID 0000.0001)               '70'
(PID.TID 0000.0001)     ;
(PID.TID 0000.0001) PTRACERS_advScheme = /* Advection Scheme */
(PID.TID 0000.0001)                      33
(PID.TID 0000.0001)     ;
(PID.TID 0000.0001) PTRACERS_ImplVertAdv = /* implicit vert. advection flag */
(PID.TID 0000.0001)                   F
(PID.TID 0000.0001)     ;
(PID.TID 0000.0001) PTRACERS_diffKh = /* Laplacian Diffusivity */
(PID.TID 0000.0001)                 0.000000000000000E+00
(PID.TID 0000.0001)     ;
(PID.TID 0000.0001) PTRACERS_diffK4 = /* Biharmonic Diffusivity */
(PID.TID 0000.0001)                 0.000000000000000E+00
(PID.TID 0000.0001)     ;
(PID.TID 0000.0001) PTRACERS_diffKrNr = /* Vertical Diffusivity */
(PID.TID 0000.0001)    35 @  1.000000000000000E-05              /* K =  1: 35 */
(PID.TID 0000.0001)     ;
(PID.TID 0000.0001) PTRACERS_useGMRedi = /* apply GM-Redi */
(PID.TID 0000.0001)                   F
(PID.TID 0000.0001)     ;
(PID.TID 0000.0001) PTRACERS_useKPP = /* apply KPP scheme */
(PID.TID 0000.0001)                   F
(PID.TID 0000.0001)     ;
(PID.TID 0000.0001) PTRACERS_ref = /* Reference vertical profile */
(PID.TID 0000.0001)    35 @  0.000000000000000E+00              /* K =  1: 35 */
(PID.TID 0000.0001)     ;
(PID.TID 0000.0001) PTRACERS_EvPrRn =/* tracer conc. in Evap. & Rain */
(PID.TID 0000.0001)                 1.234567000000000E+05
(PID.TID 0000.0001)     ;
(PID.TID 0000.0001)  -----------------------------------
(PID.TID 0000.0001)  tracer number :   71
(PID.TID 0000.0001) PTRACERS_ioLabel = /* tracer IO Label */
(PID.TID 0000.0001)               '71'
(PID.TID 0000.0001)     ;
(PID.TID 0000.0001) PTRACERS_advScheme = /* Advection Scheme */
(PID.TID 0000.0001)                      33
(PID.TID 0000.0001)     ;
(PID.TID 0000.0001) PTRACERS_ImplVertAdv = /* implicit vert. advection flag */
(PID.TID 0000.0001)                   F
(PID.TID 0000.0001)     ;
(PID.TID 0000.0001) PTRACERS_diffKh = /* Laplacian Diffusivity */
(PID.TID 0000.0001)                 0.000000000000000E+00
(PID.TID 0000.0001)     ;
(PID.TID 0000.0001) PTRACERS_diffK4 = /* Biharmonic Diffusivity */
(PID.TID 0000.0001)                 0.000000000000000E+00
(PID.TID 0000.0001)     ;
(PID.TID 0000.0001) PTRACERS_diffKrNr = /* Vertical Diffusivity */
(PID.TID 0000.0001)    35 @  1.000000000000000E-05              /* K =  1: 35 */
(PID.TID 0000.0001)     ;
(PID.TID 0000.0001) PTRACERS_useGMRedi = /* apply GM-Redi */
(PID.TID 0000.0001)                   F
(PID.TID 0000.0001)     ;
(PID.TID 0000.0001) PTRACERS_useKPP = /* apply KPP scheme */
(PID.TID 0000.0001)                   F
(PID.TID 0000.0001)     ;
(PID.TID 0000.0001) PTRACERS_ref = /* Reference vertical profile */
(PID.TID 0000.0001)    35 @  0.000000000000000E+00              /* K =  1: 35 */
(PID.TID 0000.0001)     ;
(PID.TID 0000.0001) PTRACERS_EvPrRn =/* tracer conc. in Evap. & Rain */
(PID.TID 0000.0001)                 1.234567000000000E+05
(PID.TID 0000.0001)     ;
(PID.TID 0000.0001)  -----------------------------------
(PID.TID 0000.0001)  tracer number :   72
(PID.TID 0000.0001) PTRACERS_ioLabel = /* tracer IO Label */
(PID.TID 0000.0001)               '72'
(PID.TID 0000.0001)     ;
(PID.TID 0000.0001) PTRACERS_advScheme = /* Advection Scheme */
(PID.TID 0000.0001)                      33
(PID.TID 0000.0001)     ;
(PID.TID 0000.0001) PTRACERS_ImplVertAdv = /* implicit vert. advection flag */
(PID.TID 0000.0001)                   F
(PID.TID 0000.0001)     ;
(PID.TID 0000.0001) PTRACERS_diffKh = /* Laplacian Diffusivity */
(PID.TID 0000.0001)                 0.000000000000000E+00
(PID.TID 0000.0001)     ;
(PID.TID 0000.0001) PTRACERS_diffK4 = /* Biharmonic Diffusivity */
(PID.TID 0000.0001)                 0.000000000000000E+00
(PID.TID 0000.0001)     ;
(PID.TID 0000.0001) PTRACERS_diffKrNr = /* Vertical Diffusivity */
(PID.TID 0000.0001)    35 @  1.000000000000000E-05              /* K =  1: 35 */
(PID.TID 0000.0001)     ;
(PID.TID 0000.0001) PTRACERS_useGMRedi = /* apply GM-Redi */
(PID.TID 0000.0001)                   F
(PID.TID 0000.0001)     ;
(PID.TID 0000.0001) PTRACERS_useKPP = /* apply KPP scheme */
(PID.TID 0000.0001)                   F
(PID.TID 0000.0001)     ;
(PID.TID 0000.0001) PTRACERS_ref = /* Reference vertical profile */
(PID.TID 0000.0001)    35 @  0.000000000000000E+00              /* K =  1: 35 */
(PID.TID 0000.0001)     ;
(PID.TID 0000.0001) PTRACERS_EvPrRn =/* tracer conc. in Evap. & Rain */
(PID.TID 0000.0001)                 1.234567000000000E+05
(PID.TID 0000.0001)     ;
(PID.TID 0000.0001)  -----------------------------------
(PID.TID 0000.0001)  tracer number :   73
(PID.TID 0000.0001) PTRACERS_ioLabel = /* tracer IO Label */
(PID.TID 0000.0001)               '73'
(PID.TID 0000.0001)     ;
(PID.TID 0000.0001) PTRACERS_advScheme = /* Advection Scheme */
(PID.TID 0000.0001)                      33
(PID.TID 0000.0001)     ;
(PID.TID 0000.0001) PTRACERS_ImplVertAdv = /* implicit vert. advection flag */
(PID.TID 0000.0001)                   F
(PID.TID 0000.0001)     ;
(PID.TID 0000.0001) PTRACERS_diffKh = /* Laplacian Diffusivity */
(PID.TID 0000.0001)                 0.000000000000000E+00
(PID.TID 0000.0001)     ;
(PID.TID 0000.0001) PTRACERS_diffK4 = /* Biharmonic Diffusivity */
(PID.TID 0000.0001)                 0.000000000000000E+00
(PID.TID 0000.0001)     ;
(PID.TID 0000.0001) PTRACERS_diffKrNr = /* Vertical Diffusivity */
(PID.TID 0000.0001)    35 @  1.000000000000000E-05              /* K =  1: 35 */
(PID.TID 0000.0001)     ;
(PID.TID 0000.0001) PTRACERS_useGMRedi = /* apply GM-Redi */
(PID.TID 0000.0001)                   F
(PID.TID 0000.0001)     ;
(PID.TID 0000.0001) PTRACERS_useKPP = /* apply KPP scheme */
(PID.TID 0000.0001)                   F
(PID.TID 0000.0001)     ;
(PID.TID 0000.0001) PTRACERS_ref = /* Reference vertical profile */
(PID.TID 0000.0001)    35 @  0.000000000000000E+00              /* K =  1: 35 */
(PID.TID 0000.0001)     ;
(PID.TID 0000.0001) PTRACERS_EvPrRn =/* tracer conc. in Evap. & Rain */
(PID.TID 0000.0001)                 1.234567000000000E+05
(PID.TID 0000.0001)     ;
(PID.TID 0000.0001)  -----------------------------------
(PID.TID 0000.0001)  tracer number :   74
(PID.TID 0000.0001) PTRACERS_ioLabel = /* tracer IO Label */
(PID.TID 0000.0001)               '74'
(PID.TID 0000.0001)     ;
(PID.TID 0000.0001) PTRACERS_advScheme = /* Advection Scheme */
(PID.TID 0000.0001)                      33
(PID.TID 0000.0001)     ;
(PID.TID 0000.0001) PTRACERS_ImplVertAdv = /* implicit vert. advection flag */
(PID.TID 0000.0001)                   F
(PID.TID 0000.0001)     ;
(PID.TID 0000.0001) PTRACERS_diffKh = /* Laplacian Diffusivity */
(PID.TID 0000.0001)                 0.000000000000000E+00
(PID.TID 0000.0001)     ;
(PID.TID 0000.0001) PTRACERS_diffK4 = /* Biharmonic Diffusivity */
(PID.TID 0000.0001)                 0.000000000000000E+00
(PID.TID 0000.0001)     ;
(PID.TID 0000.0001) PTRACERS_diffKrNr = /* Vertical Diffusivity */
(PID.TID 0000.0001)    35 @  1.000000000000000E-05              /* K =  1: 35 */
(PID.TID 0000.0001)     ;
(PID.TID 0000.0001) PTRACERS_useGMRedi = /* apply GM-Redi */
(PID.TID 0000.0001)                   F
(PID.TID 0000.0001)     ;
(PID.TID 0000.0001) PTRACERS_useKPP = /* apply KPP scheme */
(PID.TID 0000.0001)                   F
(PID.TID 0000.0001)     ;
(PID.TID 0000.0001) PTRACERS_ref = /* Reference vertical profile */
(PID.TID 0000.0001)    35 @  0.000000000000000E+00              /* K =  1: 35 */
(PID.TID 0000.0001)     ;
(PID.TID 0000.0001) PTRACERS_EvPrRn =/* tracer conc. in Evap. & Rain */
(PID.TID 0000.0001)                 1.234567000000000E+05
(PID.TID 0000.0001)     ;
(PID.TID 0000.0001)  -----------------------------------
(PID.TID 0000.0001)  tracer number :   75
(PID.TID 0000.0001) PTRACERS_ioLabel = /* tracer IO Label */
(PID.TID 0000.0001)               '75'
(PID.TID 0000.0001)     ;
(PID.TID 0000.0001) PTRACERS_advScheme = /* Advection Scheme */
(PID.TID 0000.0001)                      33
(PID.TID 0000.0001)     ;
(PID.TID 0000.0001) PTRACERS_ImplVertAdv = /* implicit vert. advection flag */
(PID.TID 0000.0001)                   F
(PID.TID 0000.0001)     ;
(PID.TID 0000.0001) PTRACERS_diffKh = /* Laplacian Diffusivity */
(PID.TID 0000.0001)                 0.000000000000000E+00
(PID.TID 0000.0001)     ;
(PID.TID 0000.0001) PTRACERS_diffK4 = /* Biharmonic Diffusivity */
(PID.TID 0000.0001)                 0.000000000000000E+00
(PID.TID 0000.0001)     ;
(PID.TID 0000.0001) PTRACERS_diffKrNr = /* Vertical Diffusivity */
(PID.TID 0000.0001)    35 @  1.000000000000000E-05              /* K =  1: 35 */
(PID.TID 0000.0001)     ;
(PID.TID 0000.0001) PTRACERS_useGMRedi = /* apply GM-Redi */
(PID.TID 0000.0001)                   F
(PID.TID 0000.0001)     ;
(PID.TID 0000.0001) PTRACERS_useKPP = /* apply KPP scheme */
(PID.TID 0000.0001)                   F
(PID.TID 0000.0001)     ;
(PID.TID 0000.0001) PTRACERS_ref = /* Reference vertical profile */
(PID.TID 0000.0001)    35 @  0.000000000000000E+00              /* K =  1: 35 */
(PID.TID 0000.0001)     ;
(PID.TID 0000.0001) PTRACERS_EvPrRn =/* tracer conc. in Evap. & Rain */
(PID.TID 0000.0001)                 1.234567000000000E+05
(PID.TID 0000.0001)     ;
(PID.TID 0000.0001)  -----------------------------------
(PID.TID 0000.0001)  tracer number :   76
(PID.TID 0000.0001) PTRACERS_ioLabel = /* tracer IO Label */
(PID.TID 0000.0001)               '76'
(PID.TID 0000.0001)     ;
(PID.TID 0000.0001) PTRACERS_advScheme = /* Advection Scheme */
(PID.TID 0000.0001)                      33
(PID.TID 0000.0001)     ;
(PID.TID 0000.0001) PTRACERS_ImplVertAdv = /* implicit vert. advection flag */
(PID.TID 0000.0001)                   F
(PID.TID 0000.0001)     ;
(PID.TID 0000.0001) PTRACERS_diffKh = /* Laplacian Diffusivity */
(PID.TID 0000.0001)                 0.000000000000000E+00
(PID.TID 0000.0001)     ;
(PID.TID 0000.0001) PTRACERS_diffK4 = /* Biharmonic Diffusivity */
(PID.TID 0000.0001)                 0.000000000000000E+00
(PID.TID 0000.0001)     ;
(PID.TID 0000.0001) PTRACERS_diffKrNr = /* Vertical Diffusivity */
(PID.TID 0000.0001)    35 @  1.000000000000000E-05              /* K =  1: 35 */
(PID.TID 0000.0001)     ;
(PID.TID 0000.0001) PTRACERS_useGMRedi = /* apply GM-Redi */
(PID.TID 0000.0001)                   F
(PID.TID 0000.0001)     ;
(PID.TID 0000.0001) PTRACERS_useKPP = /* apply KPP scheme */
(PID.TID 0000.0001)                   F
(PID.TID 0000.0001)     ;
(PID.TID 0000.0001) PTRACERS_ref = /* Reference vertical profile */
(PID.TID 0000.0001)    35 @  0.000000000000000E+00              /* K =  1: 35 */
(PID.TID 0000.0001)     ;
(PID.TID 0000.0001) PTRACERS_EvPrRn =/* tracer conc. in Evap. & Rain */
(PID.TID 0000.0001)                 1.234567000000000E+05
(PID.TID 0000.0001)     ;
(PID.TID 0000.0001)  -----------------------------------
(PID.TID 0000.0001)  tracer number :   77
(PID.TID 0000.0001) PTRACERS_ioLabel = /* tracer IO Label */
(PID.TID 0000.0001)               '77'
(PID.TID 0000.0001)     ;
(PID.TID 0000.0001) PTRACERS_advScheme = /* Advection Scheme */
(PID.TID 0000.0001)                      33
(PID.TID 0000.0001)     ;
(PID.TID 0000.0001) PTRACERS_ImplVertAdv = /* implicit vert. advection flag */
(PID.TID 0000.0001)                   F
(PID.TID 0000.0001)     ;
(PID.TID 0000.0001) PTRACERS_diffKh = /* Laplacian Diffusivity */
(PID.TID 0000.0001)                 0.000000000000000E+00
(PID.TID 0000.0001)     ;
(PID.TID 0000.0001) PTRACERS_diffK4 = /* Biharmonic Diffusivity */
(PID.TID 0000.0001)                 0.000000000000000E+00
(PID.TID 0000.0001)     ;
(PID.TID 0000.0001) PTRACERS_diffKrNr = /* Vertical Diffusivity */
(PID.TID 0000.0001)    35 @  1.000000000000000E-05              /* K =  1: 35 */
(PID.TID 0000.0001)     ;
(PID.TID 0000.0001) PTRACERS_useGMRedi = /* apply GM-Redi */
(PID.TID 0000.0001)                   F
(PID.TID 0000.0001)     ;
(PID.TID 0000.0001) PTRACERS_useKPP = /* apply KPP scheme */
(PID.TID 0000.0001)                   F
(PID.TID 0000.0001)     ;
(PID.TID 0000.0001) PTRACERS_ref = /* Reference vertical profile */
(PID.TID 0000.0001)    35 @  0.000000000000000E+00              /* K =  1: 35 */
(PID.TID 0000.0001)     ;
(PID.TID 0000.0001) PTRACERS_EvPrRn =/* tracer conc. in Evap. & Rain */
(PID.TID 0000.0001)                 1.234567000000000E+05
(PID.TID 0000.0001)     ;
(PID.TID 0000.0001)  -----------------------------------
(PID.TID 0000.0001)  tracer number :   78
(PID.TID 0000.0001) PTRACERS_ioLabel = /* tracer IO Label */
(PID.TID 0000.0001)               '78'
(PID.TID 0000.0001)     ;
(PID.TID 0000.0001) PTRACERS_advScheme = /* Advection Scheme */
(PID.TID 0000.0001)                      33
(PID.TID 0000.0001)     ;
(PID.TID 0000.0001) PTRACERS_ImplVertAdv = /* implicit vert. advection flag */
(PID.TID 0000.0001)                   F
(PID.TID 0000.0001)     ;
(PID.TID 0000.0001) PTRACERS_diffKh = /* Laplacian Diffusivity */
(PID.TID 0000.0001)                 0.000000000000000E+00
(PID.TID 0000.0001)     ;
(PID.TID 0000.0001) PTRACERS_diffK4 = /* Biharmonic Diffusivity */
(PID.TID 0000.0001)                 0.000000000000000E+00
(PID.TID 0000.0001)     ;
(PID.TID 0000.0001) PTRACERS_diffKrNr = /* Vertical Diffusivity */
(PID.TID 0000.0001)    35 @  1.000000000000000E-05              /* K =  1: 35 */
(PID.TID 0000.0001)     ;
(PID.TID 0000.0001) PTRACERS_useGMRedi = /* apply GM-Redi */
(PID.TID 0000.0001)                   F
(PID.TID 0000.0001)     ;
(PID.TID 0000.0001) PTRACERS_useKPP = /* apply KPP scheme */
(PID.TID 0000.0001)                   F
(PID.TID 0000.0001)     ;
(PID.TID 0000.0001) PTRACERS_ref = /* Reference vertical profile */
(PID.TID 0000.0001)    35 @  0.000000000000000E+00              /* K =  1: 35 */
(PID.TID 0000.0001)     ;
(PID.TID 0000.0001) PTRACERS_EvPrRn =/* tracer conc. in Evap. & Rain */
(PID.TID 0000.0001)                 1.234567000000000E+05
(PID.TID 0000.0001)     ;
(PID.TID 0000.0001)  -----------------------------------
(PID.TID 0000.0001)  tracer number :   79
(PID.TID 0000.0001) PTRACERS_ioLabel = /* tracer IO Label */
(PID.TID 0000.0001)               '79'
(PID.TID 0000.0001)     ;
(PID.TID 0000.0001) PTRACERS_advScheme = /* Advection Scheme */
(PID.TID 0000.0001)                      33
(PID.TID 0000.0001)     ;
(PID.TID 0000.0001) PTRACERS_ImplVertAdv = /* implicit vert. advection flag */
(PID.TID 0000.0001)                   F
(PID.TID 0000.0001)     ;
(PID.TID 0000.0001) PTRACERS_diffKh = /* Laplacian Diffusivity */
(PID.TID 0000.0001)                 0.000000000000000E+00
(PID.TID 0000.0001)     ;
(PID.TID 0000.0001) PTRACERS_diffK4 = /* Biharmonic Diffusivity */
(PID.TID 0000.0001)                 0.000000000000000E+00
(PID.TID 0000.0001)     ;
(PID.TID 0000.0001) PTRACERS_diffKrNr = /* Vertical Diffusivity */
(PID.TID 0000.0001)    35 @  1.000000000000000E-05              /* K =  1: 35 */
(PID.TID 0000.0001)     ;
(PID.TID 0000.0001) PTRACERS_useGMRedi = /* apply GM-Redi */
(PID.TID 0000.0001)                   F
(PID.TID 0000.0001)     ;
(PID.TID 0000.0001) PTRACERS_useKPP = /* apply KPP scheme */
(PID.TID 0000.0001)                   F
(PID.TID 0000.0001)     ;
(PID.TID 0000.0001) PTRACERS_ref = /* Reference vertical profile */
(PID.TID 0000.0001)    35 @  0.000000000000000E+00              /* K =  1: 35 */
(PID.TID 0000.0001)     ;
(PID.TID 0000.0001) PTRACERS_EvPrRn =/* tracer conc. in Evap. & Rain */
(PID.TID 0000.0001)                 1.234567000000000E+05
(PID.TID 0000.0001)     ;
(PID.TID 0000.0001)  -----------------------------------
(PID.TID 0000.0001)  tracer number :   80
(PID.TID 0000.0001) PTRACERS_ioLabel = /* tracer IO Label */
(PID.TID 0000.0001)               '80'
(PID.TID 0000.0001)     ;
(PID.TID 0000.0001) PTRACERS_advScheme = /* Advection Scheme */
(PID.TID 0000.0001)                      33
(PID.TID 0000.0001)     ;
(PID.TID 0000.0001) PTRACERS_ImplVertAdv = /* implicit vert. advection flag */
(PID.TID 0000.0001)                   F
(PID.TID 0000.0001)     ;
(PID.TID 0000.0001) PTRACERS_diffKh = /* Laplacian Diffusivity */
(PID.TID 0000.0001)                 0.000000000000000E+00
(PID.TID 0000.0001)     ;
(PID.TID 0000.0001) PTRACERS_diffK4 = /* Biharmonic Diffusivity */
(PID.TID 0000.0001)                 0.000000000000000E+00
(PID.TID 0000.0001)     ;
(PID.TID 0000.0001) PTRACERS_diffKrNr = /* Vertical Diffusivity */
(PID.TID 0000.0001)    35 @  1.000000000000000E-05              /* K =  1: 35 */
(PID.TID 0000.0001)     ;
(PID.TID 0000.0001) PTRACERS_useGMRedi = /* apply GM-Redi */
(PID.TID 0000.0001)                   F
(PID.TID 0000.0001)     ;
(PID.TID 0000.0001) PTRACERS_useKPP = /* apply KPP scheme */
(PID.TID 0000.0001)                   F
(PID.TID 0000.0001)     ;
(PID.TID 0000.0001) PTRACERS_ref = /* Reference vertical profile */
(PID.TID 0000.0001)    35 @  0.000000000000000E+00              /* K =  1: 35 */
(PID.TID 0000.0001)     ;
(PID.TID 0000.0001) PTRACERS_EvPrRn =/* tracer conc. in Evap. & Rain */
(PID.TID 0000.0001)                 1.234567000000000E+05
(PID.TID 0000.0001)     ;
(PID.TID 0000.0001)  -----------------------------------
(PID.TID 0000.0001)  tracer number :   81
(PID.TID 0000.0001) PTRACERS_ioLabel = /* tracer IO Label */
(PID.TID 0000.0001)               '81'
(PID.TID 0000.0001)     ;
(PID.TID 0000.0001) PTRACERS_advScheme = /* Advection Scheme */
(PID.TID 0000.0001)                      33
(PID.TID 0000.0001)     ;
(PID.TID 0000.0001) PTRACERS_ImplVertAdv = /* implicit vert. advection flag */
(PID.TID 0000.0001)                   F
(PID.TID 0000.0001)     ;
(PID.TID 0000.0001) PTRACERS_diffKh = /* Laplacian Diffusivity */
(PID.TID 0000.0001)                 0.000000000000000E+00
(PID.TID 0000.0001)     ;
(PID.TID 0000.0001) PTRACERS_diffK4 = /* Biharmonic Diffusivity */
(PID.TID 0000.0001)                 0.000000000000000E+00
(PID.TID 0000.0001)     ;
(PID.TID 0000.0001) PTRACERS_diffKrNr = /* Vertical Diffusivity */
(PID.TID 0000.0001)    35 @  1.000000000000000E-05              /* K =  1: 35 */
(PID.TID 0000.0001)     ;
(PID.TID 0000.0001) PTRACERS_useGMRedi = /* apply GM-Redi */
(PID.TID 0000.0001)                   F
(PID.TID 0000.0001)     ;
(PID.TID 0000.0001) PTRACERS_useKPP = /* apply KPP scheme */
(PID.TID 0000.0001)                   F
(PID.TID 0000.0001)     ;
(PID.TID 0000.0001) PTRACERS_ref = /* Reference vertical profile */
(PID.TID 0000.0001)    35 @  0.000000000000000E+00              /* K =  1: 35 */
(PID.TID 0000.0001)     ;
(PID.TID 0000.0001) PTRACERS_EvPrRn =/* tracer conc. in Evap. & Rain */
(PID.TID 0000.0001)                 1.234567000000000E+05
(PID.TID 0000.0001)     ;
(PID.TID 0000.0001)  -----------------------------------
(PID.TID 0000.0001)  tracer number :   82
(PID.TID 0000.0001) PTRACERS_ioLabel = /* tracer IO Label */
(PID.TID 0000.0001)               '82'
(PID.TID 0000.0001)     ;
(PID.TID 0000.0001) PTRACERS_advScheme = /* Advection Scheme */
(PID.TID 0000.0001)                      33
(PID.TID 0000.0001)     ;
(PID.TID 0000.0001) PTRACERS_ImplVertAdv = /* implicit vert. advection flag */
(PID.TID 0000.0001)                   F
(PID.TID 0000.0001)     ;
(PID.TID 0000.0001) PTRACERS_diffKh = /* Laplacian Diffusivity */
(PID.TID 0000.0001)                 0.000000000000000E+00
(PID.TID 0000.0001)     ;
(PID.TID 0000.0001) PTRACERS_diffK4 = /* Biharmonic Diffusivity */
(PID.TID 0000.0001)                 0.000000000000000E+00
(PID.TID 0000.0001)     ;
(PID.TID 0000.0001) PTRACERS_diffKrNr = /* Vertical Diffusivity */
(PID.TID 0000.0001)    35 @  1.000000000000000E-05              /* K =  1: 35 */
(PID.TID 0000.0001)     ;
(PID.TID 0000.0001) PTRACERS_useGMRedi = /* apply GM-Redi */
(PID.TID 0000.0001)                   F
(PID.TID 0000.0001)     ;
(PID.TID 0000.0001) PTRACERS_useKPP = /* apply KPP scheme */
(PID.TID 0000.0001)                   F
(PID.TID 0000.0001)     ;
(PID.TID 0000.0001) PTRACERS_ref = /* Reference vertical profile */
(PID.TID 0000.0001)    35 @  0.000000000000000E+00              /* K =  1: 35 */
(PID.TID 0000.0001)     ;
(PID.TID 0000.0001) PTRACERS_EvPrRn =/* tracer conc. in Evap. & Rain */
(PID.TID 0000.0001)                 1.234567000000000E+05
(PID.TID 0000.0001)     ;
(PID.TID 0000.0001)  -----------------------------------
(PID.TID 0000.0001)  tracer number :   83
(PID.TID 0000.0001) PTRACERS_ioLabel = /* tracer IO Label */
(PID.TID 0000.0001)               '83'
(PID.TID 0000.0001)     ;
(PID.TID 0000.0001) PTRACERS_advScheme = /* Advection Scheme */
(PID.TID 0000.0001)                      33
(PID.TID 0000.0001)     ;
(PID.TID 0000.0001) PTRACERS_ImplVertAdv = /* implicit vert. advection flag */
(PID.TID 0000.0001)                   F
(PID.TID 0000.0001)     ;
(PID.TID 0000.0001) PTRACERS_diffKh = /* Laplacian Diffusivity */
(PID.TID 0000.0001)                 0.000000000000000E+00
(PID.TID 0000.0001)     ;
(PID.TID 0000.0001) PTRACERS_diffK4 = /* Biharmonic Diffusivity */
(PID.TID 0000.0001)                 0.000000000000000E+00
(PID.TID 0000.0001)     ;
(PID.TID 0000.0001) PTRACERS_diffKrNr = /* Vertical Diffusivity */
(PID.TID 0000.0001)    35 @  1.000000000000000E-05              /* K =  1: 35 */
(PID.TID 0000.0001)     ;
(PID.TID 0000.0001) PTRACERS_useGMRedi = /* apply GM-Redi */
(PID.TID 0000.0001)                   F
(PID.TID 0000.0001)     ;
(PID.TID 0000.0001) PTRACERS_useKPP = /* apply KPP scheme */
(PID.TID 0000.0001)                   F
(PID.TID 0000.0001)     ;
(PID.TID 0000.0001) PTRACERS_ref = /* Reference vertical profile */
(PID.TID 0000.0001)    35 @  0.000000000000000E+00              /* K =  1: 35 */
(PID.TID 0000.0001)     ;
(PID.TID 0000.0001) PTRACERS_EvPrRn =/* tracer conc. in Evap. & Rain */
(PID.TID 0000.0001)                 1.234567000000000E+05
(PID.TID 0000.0001)     ;
(PID.TID 0000.0001)  -----------------------------------
(PID.TID 0000.0001)  tracer number :   84
(PID.TID 0000.0001) PTRACERS_ioLabel = /* tracer IO Label */
(PID.TID 0000.0001)               '84'
(PID.TID 0000.0001)     ;
(PID.TID 0000.0001) PTRACERS_advScheme = /* Advection Scheme */
(PID.TID 0000.0001)                      33
(PID.TID 0000.0001)     ;
(PID.TID 0000.0001) PTRACERS_ImplVertAdv = /* implicit vert. advection flag */
(PID.TID 0000.0001)                   F
(PID.TID 0000.0001)     ;
(PID.TID 0000.0001) PTRACERS_diffKh = /* Laplacian Diffusivity */
(PID.TID 0000.0001)                 0.000000000000000E+00
(PID.TID 0000.0001)     ;
(PID.TID 0000.0001) PTRACERS_diffK4 = /* Biharmonic Diffusivity */
(PID.TID 0000.0001)                 0.000000000000000E+00
(PID.TID 0000.0001)     ;
(PID.TID 0000.0001) PTRACERS_diffKrNr = /* Vertical Diffusivity */
(PID.TID 0000.0001)    35 @  1.000000000000000E-05              /* K =  1: 35 */
(PID.TID 0000.0001)     ;
(PID.TID 0000.0001) PTRACERS_useGMRedi = /* apply GM-Redi */
(PID.TID 0000.0001)                   F
(PID.TID 0000.0001)     ;
(PID.TID 0000.0001) PTRACERS_useKPP = /* apply KPP scheme */
(PID.TID 0000.0001)                   F
(PID.TID 0000.0001)     ;
(PID.TID 0000.0001) PTRACERS_ref = /* Reference vertical profile */
(PID.TID 0000.0001)    35 @  0.000000000000000E+00              /* K =  1: 35 */
(PID.TID 0000.0001)     ;
(PID.TID 0000.0001) PTRACERS_EvPrRn =/* tracer conc. in Evap. & Rain */
(PID.TID 0000.0001)                 1.234567000000000E+05
(PID.TID 0000.0001)     ;
(PID.TID 0000.0001)  -----------------------------------
(PID.TID 0000.0001)  tracer number :   85
(PID.TID 0000.0001) PTRACERS_ioLabel = /* tracer IO Label */
(PID.TID 0000.0001)               '85'
(PID.TID 0000.0001)     ;
(PID.TID 0000.0001) PTRACERS_advScheme = /* Advection Scheme */
(PID.TID 0000.0001)                      33
(PID.TID 0000.0001)     ;
(PID.TID 0000.0001) PTRACERS_ImplVertAdv = /* implicit vert. advection flag */
(PID.TID 0000.0001)                   F
(PID.TID 0000.0001)     ;
(PID.TID 0000.0001) PTRACERS_diffKh = /* Laplacian Diffusivity */
(PID.TID 0000.0001)                 0.000000000000000E+00
(PID.TID 0000.0001)     ;
(PID.TID 0000.0001) PTRACERS_diffK4 = /* Biharmonic Diffusivity */
(PID.TID 0000.0001)                 0.000000000000000E+00
(PID.TID 0000.0001)     ;
(PID.TID 0000.0001) PTRACERS_diffKrNr = /* Vertical Diffusivity */
(PID.TID 0000.0001)    35 @  1.000000000000000E-05              /* K =  1: 35 */
(PID.TID 0000.0001)     ;
(PID.TID 0000.0001) PTRACERS_useGMRedi = /* apply GM-Redi */
(PID.TID 0000.0001)                   F
(PID.TID 0000.0001)     ;
(PID.TID 0000.0001) PTRACERS_useKPP = /* apply KPP scheme */
(PID.TID 0000.0001)                   F
(PID.TID 0000.0001)     ;
(PID.TID 0000.0001) PTRACERS_ref = /* Reference vertical profile */
(PID.TID 0000.0001)    35 @  0.000000000000000E+00              /* K =  1: 35 */
(PID.TID 0000.0001)     ;
(PID.TID 0000.0001) PTRACERS_EvPrRn =/* tracer conc. in Evap. & Rain */
(PID.TID 0000.0001)                 1.234567000000000E+05
(PID.TID 0000.0001)     ;
(PID.TID 0000.0001)  -----------------------------------
(PID.TID 0000.0001)  tracer number :   86
(PID.TID 0000.0001) PTRACERS_ioLabel = /* tracer IO Label */
(PID.TID 0000.0001)               '86'
(PID.TID 0000.0001)     ;
(PID.TID 0000.0001) PTRACERS_advScheme = /* Advection Scheme */
(PID.TID 0000.0001)                      33
(PID.TID 0000.0001)     ;
(PID.TID 0000.0001) PTRACERS_ImplVertAdv = /* implicit vert. advection flag */
(PID.TID 0000.0001)                   F
(PID.TID 0000.0001)     ;
(PID.TID 0000.0001) PTRACERS_diffKh = /* Laplacian Diffusivity */
(PID.TID 0000.0001)                 0.000000000000000E+00
(PID.TID 0000.0001)     ;
(PID.TID 0000.0001) PTRACERS_diffK4 = /* Biharmonic Diffusivity */
(PID.TID 0000.0001)                 0.000000000000000E+00
(PID.TID 0000.0001)     ;
(PID.TID 0000.0001) PTRACERS_diffKrNr = /* Vertical Diffusivity */
(PID.TID 0000.0001)    35 @  1.000000000000000E-05              /* K =  1: 35 */
(PID.TID 0000.0001)     ;
(PID.TID 0000.0001) PTRACERS_useGMRedi = /* apply GM-Redi */
(PID.TID 0000.0001)                   F
(PID.TID 0000.0001)     ;
(PID.TID 0000.0001) PTRACERS_useKPP = /* apply KPP scheme */
(PID.TID 0000.0001)                   F
(PID.TID 0000.0001)     ;
(PID.TID 0000.0001) PTRACERS_ref = /* Reference vertical profile */
(PID.TID 0000.0001)    35 @  0.000000000000000E+00              /* K =  1: 35 */
(PID.TID 0000.0001)     ;
(PID.TID 0000.0001) PTRACERS_EvPrRn =/* tracer conc. in Evap. & Rain */
(PID.TID 0000.0001)                 1.234567000000000E+05
(PID.TID 0000.0001)     ;
(PID.TID 0000.0001)  -----------------------------------
(PID.TID 0000.0001)  tracer number :   87
(PID.TID 0000.0001) PTRACERS_ioLabel = /* tracer IO Label */
(PID.TID 0000.0001)               '87'
(PID.TID 0000.0001)     ;
(PID.TID 0000.0001) PTRACERS_advScheme = /* Advection Scheme */
(PID.TID 0000.0001)                      33
(PID.TID 0000.0001)     ;
(PID.TID 0000.0001) PTRACERS_ImplVertAdv = /* implicit vert. advection flag */
(PID.TID 0000.0001)                   F
(PID.TID 0000.0001)     ;
(PID.TID 0000.0001) PTRACERS_diffKh = /* Laplacian Diffusivity */
(PID.TID 0000.0001)                 0.000000000000000E+00
(PID.TID 0000.0001)     ;
(PID.TID 0000.0001) PTRACERS_diffK4 = /* Biharmonic Diffusivity */
(PID.TID 0000.0001)                 0.000000000000000E+00
(PID.TID 0000.0001)     ;
(PID.TID 0000.0001) PTRACERS_diffKrNr = /* Vertical Diffusivity */
(PID.TID 0000.0001)    35 @  1.000000000000000E-05              /* K =  1: 35 */
(PID.TID 0000.0001)     ;
(PID.TID 0000.0001) PTRACERS_useGMRedi = /* apply GM-Redi */
(PID.TID 0000.0001)                   F
(PID.TID 0000.0001)     ;
(PID.TID 0000.0001) PTRACERS_useKPP = /* apply KPP scheme */
(PID.TID 0000.0001)                   F
(PID.TID 0000.0001)     ;
(PID.TID 0000.0001) PTRACERS_ref = /* Reference vertical profile */
(PID.TID 0000.0001)    35 @  0.000000000000000E+00              /* K =  1: 35 */
(PID.TID 0000.0001)     ;
(PID.TID 0000.0001) PTRACERS_EvPrRn =/* tracer conc. in Evap. & Rain */
(PID.TID 0000.0001)                 1.234567000000000E+05
(PID.TID 0000.0001)     ;
(PID.TID 0000.0001)  -----------------------------------
(PID.TID 0000.0001)  tracer number :   88
(PID.TID 0000.0001) PTRACERS_ioLabel = /* tracer IO Label */
(PID.TID 0000.0001)               '88'
(PID.TID 0000.0001)     ;
(PID.TID 0000.0001) PTRACERS_advScheme = /* Advection Scheme */
(PID.TID 0000.0001)                      33
(PID.TID 0000.0001)     ;
(PID.TID 0000.0001) PTRACERS_ImplVertAdv = /* implicit vert. advection flag */
(PID.TID 0000.0001)                   F
(PID.TID 0000.0001)     ;
(PID.TID 0000.0001) PTRACERS_diffKh = /* Laplacian Diffusivity */
(PID.TID 0000.0001)                 0.000000000000000E+00
(PID.TID 0000.0001)     ;
(PID.TID 0000.0001) PTRACERS_diffK4 = /* Biharmonic Diffusivity */
(PID.TID 0000.0001)                 0.000000000000000E+00
(PID.TID 0000.0001)     ;
(PID.TID 0000.0001) PTRACERS_diffKrNr = /* Vertical Diffusivity */
(PID.TID 0000.0001)    35 @  1.000000000000000E-05              /* K =  1: 35 */
(PID.TID 0000.0001)     ;
(PID.TID 0000.0001) PTRACERS_useGMRedi = /* apply GM-Redi */
(PID.TID 0000.0001)                   F
(PID.TID 0000.0001)     ;
(PID.TID 0000.0001) PTRACERS_useKPP = /* apply KPP scheme */
(PID.TID 0000.0001)                   F
(PID.TID 0000.0001)     ;
(PID.TID 0000.0001) PTRACERS_ref = /* Reference vertical profile */
(PID.TID 0000.0001)    35 @  0.000000000000000E+00              /* K =  1: 35 */
(PID.TID 0000.0001)     ;
(PID.TID 0000.0001) PTRACERS_EvPrRn =/* tracer conc. in Evap. & Rain */
(PID.TID 0000.0001)                 1.234567000000000E+05
(PID.TID 0000.0001)     ;
(PID.TID 0000.0001)  -----------------------------------
(PID.TID 0000.0001)  tracer number :   89
(PID.TID 0000.0001) PTRACERS_ioLabel = /* tracer IO Label */
(PID.TID 0000.0001)               '89'
(PID.TID 0000.0001)     ;
(PID.TID 0000.0001) PTRACERS_advScheme = /* Advection Scheme */
(PID.TID 0000.0001)                      33
(PID.TID 0000.0001)     ;
(PID.TID 0000.0001) PTRACERS_ImplVertAdv = /* implicit vert. advection flag */
(PID.TID 0000.0001)                   F
(PID.TID 0000.0001)     ;
(PID.TID 0000.0001) PTRACERS_diffKh = /* Laplacian Diffusivity */
(PID.TID 0000.0001)                 0.000000000000000E+00
(PID.TID 0000.0001)     ;
(PID.TID 0000.0001) PTRACERS_diffK4 = /* Biharmonic Diffusivity */
(PID.TID 0000.0001)                 0.000000000000000E+00
(PID.TID 0000.0001)     ;
(PID.TID 0000.0001) PTRACERS_diffKrNr = /* Vertical Diffusivity */
(PID.TID 0000.0001)    35 @  1.000000000000000E-05              /* K =  1: 35 */
(PID.TID 0000.0001)     ;
(PID.TID 0000.0001) PTRACERS_useGMRedi = /* apply GM-Redi */
(PID.TID 0000.0001)                   F
(PID.TID 0000.0001)     ;
(PID.TID 0000.0001) PTRACERS_useKPP = /* apply KPP scheme */
(PID.TID 0000.0001)                   F
(PID.TID 0000.0001)     ;
(PID.TID 0000.0001) PTRACERS_ref = /* Reference vertical profile */
(PID.TID 0000.0001)    35 @  0.000000000000000E+00              /* K =  1: 35 */
(PID.TID 0000.0001)     ;
(PID.TID 0000.0001) PTRACERS_EvPrRn =/* tracer conc. in Evap. & Rain */
(PID.TID 0000.0001)                 1.234567000000000E+05
(PID.TID 0000.0001)     ;
(PID.TID 0000.0001)  -----------------------------------
(PID.TID 0000.0001)  tracer number :   90
(PID.TID 0000.0001) PTRACERS_ioLabel = /* tracer IO Label */
(PID.TID 0000.0001)               '90'
(PID.TID 0000.0001)     ;
(PID.TID 0000.0001) PTRACERS_advScheme = /* Advection Scheme */
(PID.TID 0000.0001)                      33
(PID.TID 0000.0001)     ;
(PID.TID 0000.0001) PTRACERS_ImplVertAdv = /* implicit vert. advection flag */
(PID.TID 0000.0001)                   F
(PID.TID 0000.0001)     ;
(PID.TID 0000.0001) PTRACERS_diffKh = /* Laplacian Diffusivity */
(PID.TID 0000.0001)                 0.000000000000000E+00
(PID.TID 0000.0001)     ;
(PID.TID 0000.0001) PTRACERS_diffK4 = /* Biharmonic Diffusivity */
(PID.TID 0000.0001)                 0.000000000000000E+00
(PID.TID 0000.0001)     ;
(PID.TID 0000.0001) PTRACERS_diffKrNr = /* Vertical Diffusivity */
(PID.TID 0000.0001)    35 @  1.000000000000000E-05              /* K =  1: 35 */
(PID.TID 0000.0001)     ;
(PID.TID 0000.0001) PTRACERS_useGMRedi = /* apply GM-Redi */
(PID.TID 0000.0001)                   F
(PID.TID 0000.0001)     ;
(PID.TID 0000.0001) PTRACERS_useKPP = /* apply KPP scheme */
(PID.TID 0000.0001)                   F
(PID.TID 0000.0001)     ;
(PID.TID 0000.0001) PTRACERS_ref = /* Reference vertical profile */
(PID.TID 0000.0001)    35 @  0.000000000000000E+00              /* K =  1: 35 */
(PID.TID 0000.0001)     ;
(PID.TID 0000.0001) PTRACERS_EvPrRn =/* tracer conc. in Evap. & Rain */
(PID.TID 0000.0001)                 1.234567000000000E+05
(PID.TID 0000.0001)     ;
(PID.TID 0000.0001)  -----------------------------------
(PID.TID 0000.0001)  tracer number :   91
(PID.TID 0000.0001) PTRACERS_ioLabel = /* tracer IO Label */
(PID.TID 0000.0001)               '91'
(PID.TID 0000.0001)     ;
(PID.TID 0000.0001) PTRACERS_advScheme = /* Advection Scheme */
(PID.TID 0000.0001)                      33
(PID.TID 0000.0001)     ;
(PID.TID 0000.0001) PTRACERS_ImplVertAdv = /* implicit vert. advection flag */
(PID.TID 0000.0001)                   F
(PID.TID 0000.0001)     ;
(PID.TID 0000.0001) PTRACERS_diffKh = /* Laplacian Diffusivity */
(PID.TID 0000.0001)                 0.000000000000000E+00
(PID.TID 0000.0001)     ;
(PID.TID 0000.0001) PTRACERS_diffK4 = /* Biharmonic Diffusivity */
(PID.TID 0000.0001)                 0.000000000000000E+00
(PID.TID 0000.0001)     ;
(PID.TID 0000.0001) PTRACERS_diffKrNr = /* Vertical Diffusivity */
(PID.TID 0000.0001)    35 @  1.000000000000000E-05              /* K =  1: 35 */
(PID.TID 0000.0001)     ;
(PID.TID 0000.0001) PTRACERS_useGMRedi = /* apply GM-Redi */
(PID.TID 0000.0001)                   F
(PID.TID 0000.0001)     ;
(PID.TID 0000.0001) PTRACERS_useKPP = /* apply KPP scheme */
(PID.TID 0000.0001)                   F
(PID.TID 0000.0001)     ;
(PID.TID 0000.0001) PTRACERS_ref = /* Reference vertical profile */
(PID.TID 0000.0001)    35 @  0.000000000000000E+00              /* K =  1: 35 */
(PID.TID 0000.0001)     ;
(PID.TID 0000.0001) PTRACERS_EvPrRn =/* tracer conc. in Evap. & Rain */
(PID.TID 0000.0001)                 1.234567000000000E+05
(PID.TID 0000.0001)     ;
(PID.TID 0000.0001)  -----------------------------------
(PID.TID 0000.0001)  tracer number :   92
(PID.TID 0000.0001) PTRACERS_ioLabel = /* tracer IO Label */
(PID.TID 0000.0001)               '92'
(PID.TID 0000.0001)     ;
(PID.TID 0000.0001) PTRACERS_advScheme = /* Advection Scheme */
(PID.TID 0000.0001)                      33
(PID.TID 0000.0001)     ;
(PID.TID 0000.0001) PTRACERS_ImplVertAdv = /* implicit vert. advection flag */
(PID.TID 0000.0001)                   F
(PID.TID 0000.0001)     ;
(PID.TID 0000.0001) PTRACERS_diffKh = /* Laplacian Diffusivity */
(PID.TID 0000.0001)                 0.000000000000000E+00
(PID.TID 0000.0001)     ;
(PID.TID 0000.0001) PTRACERS_diffK4 = /* Biharmonic Diffusivity */
(PID.TID 0000.0001)                 0.000000000000000E+00
(PID.TID 0000.0001)     ;
(PID.TID 0000.0001) PTRACERS_diffKrNr = /* Vertical Diffusivity */
(PID.TID 0000.0001)    35 @  1.000000000000000E-05              /* K =  1: 35 */
(PID.TID 0000.0001)     ;
(PID.TID 0000.0001) PTRACERS_useGMRedi = /* apply GM-Redi */
(PID.TID 0000.0001)                   F
(PID.TID 0000.0001)     ;
(PID.TID 0000.0001) PTRACERS_useKPP = /* apply KPP scheme */
(PID.TID 0000.0001)                   F
(PID.TID 0000.0001)     ;
(PID.TID 0000.0001) PTRACERS_ref = /* Reference vertical profile */
(PID.TID 0000.0001)    35 @  0.000000000000000E+00              /* K =  1: 35 */
(PID.TID 0000.0001)     ;
(PID.TID 0000.0001) PTRACERS_EvPrRn =/* tracer conc. in Evap. & Rain */
(PID.TID 0000.0001)                 1.234567000000000E+05
(PID.TID 0000.0001)     ;
(PID.TID 0000.0001)  -----------------------------------
(PID.TID 0000.0001)  tracer number :   93
(PID.TID 0000.0001) PTRACERS_ioLabel = /* tracer IO Label */
(PID.TID 0000.0001)               '93'
(PID.TID 0000.0001)     ;
(PID.TID 0000.0001) PTRACERS_advScheme = /* Advection Scheme */
(PID.TID 0000.0001)                      33
(PID.TID 0000.0001)     ;
(PID.TID 0000.0001) PTRACERS_ImplVertAdv = /* implicit vert. advection flag */
(PID.TID 0000.0001)                   F
(PID.TID 0000.0001)     ;
(PID.TID 0000.0001) PTRACERS_diffKh = /* Laplacian Diffusivity */
(PID.TID 0000.0001)                 0.000000000000000E+00
(PID.TID 0000.0001)     ;
(PID.TID 0000.0001) PTRACERS_diffK4 = /* Biharmonic Diffusivity */
(PID.TID 0000.0001)                 0.000000000000000E+00
(PID.TID 0000.0001)     ;
(PID.TID 0000.0001) PTRACERS_diffKrNr = /* Vertical Diffusivity */
(PID.TID 0000.0001)    35 @  1.000000000000000E-05              /* K =  1: 35 */
(PID.TID 0000.0001)     ;
(PID.TID 0000.0001) PTRACERS_useGMRedi = /* apply GM-Redi */
(PID.TID 0000.0001)                   F
(PID.TID 0000.0001)     ;
(PID.TID 0000.0001) PTRACERS_useKPP = /* apply KPP scheme */
(PID.TID 0000.0001)                   F
(PID.TID 0000.0001)     ;
(PID.TID 0000.0001) PTRACERS_ref = /* Reference vertical profile */
(PID.TID 0000.0001)    35 @  0.000000000000000E+00              /* K =  1: 35 */
(PID.TID 0000.0001)     ;
(PID.TID 0000.0001) PTRACERS_EvPrRn =/* tracer conc. in Evap. & Rain */
(PID.TID 0000.0001)                 1.234567000000000E+05
(PID.TID 0000.0001)     ;
(PID.TID 0000.0001)  -----------------------------------
(PID.TID 0000.0001)  tracer number :   94
(PID.TID 0000.0001) PTRACERS_ioLabel = /* tracer IO Label */
(PID.TID 0000.0001)               '94'
(PID.TID 0000.0001)     ;
(PID.TID 0000.0001) PTRACERS_advScheme = /* Advection Scheme */
(PID.TID 0000.0001)                      33
(PID.TID 0000.0001)     ;
(PID.TID 0000.0001) PTRACERS_ImplVertAdv = /* implicit vert. advection flag */
(PID.TID 0000.0001)                   F
(PID.TID 0000.0001)     ;
(PID.TID 0000.0001) PTRACERS_diffKh = /* Laplacian Diffusivity */
(PID.TID 0000.0001)                 0.000000000000000E+00
(PID.TID 0000.0001)     ;
(PID.TID 0000.0001) PTRACERS_diffK4 = /* Biharmonic Diffusivity */
(PID.TID 0000.0001)                 0.000000000000000E+00
(PID.TID 0000.0001)     ;
(PID.TID 0000.0001) PTRACERS_diffKrNr = /* Vertical Diffusivity */
(PID.TID 0000.0001)    35 @  1.000000000000000E-05              /* K =  1: 35 */
(PID.TID 0000.0001)     ;
(PID.TID 0000.0001) PTRACERS_useGMRedi = /* apply GM-Redi */
(PID.TID 0000.0001)                   F
(PID.TID 0000.0001)     ;
(PID.TID 0000.0001) PTRACERS_useKPP = /* apply KPP scheme */
(PID.TID 0000.0001)                   F
(PID.TID 0000.0001)     ;
(PID.TID 0000.0001) PTRACERS_ref = /* Reference vertical profile */
(PID.TID 0000.0001)    35 @  0.000000000000000E+00              /* K =  1: 35 */
(PID.TID 0000.0001)     ;
(PID.TID 0000.0001) PTRACERS_EvPrRn =/* tracer conc. in Evap. & Rain */
(PID.TID 0000.0001)                 1.234567000000000E+05
(PID.TID 0000.0001)     ;
(PID.TID 0000.0001)  -----------------------------------
(PID.TID 0000.0001)  tracer number :   95
(PID.TID 0000.0001) PTRACERS_ioLabel = /* tracer IO Label */
(PID.TID 0000.0001)               '95'
(PID.TID 0000.0001)     ;
(PID.TID 0000.0001) PTRACERS_advScheme = /* Advection Scheme */
(PID.TID 0000.0001)                      33
(PID.TID 0000.0001)     ;
(PID.TID 0000.0001) PTRACERS_ImplVertAdv = /* implicit vert. advection flag */
(PID.TID 0000.0001)                   F
(PID.TID 0000.0001)     ;
(PID.TID 0000.0001) PTRACERS_diffKh = /* Laplacian Diffusivity */
(PID.TID 0000.0001)                 0.000000000000000E+00
(PID.TID 0000.0001)     ;
(PID.TID 0000.0001) PTRACERS_diffK4 = /* Biharmonic Diffusivity */
(PID.TID 0000.0001)                 0.000000000000000E+00
(PID.TID 0000.0001)     ;
(PID.TID 0000.0001) PTRACERS_diffKrNr = /* Vertical Diffusivity */
(PID.TID 0000.0001)    35 @  1.000000000000000E-05              /* K =  1: 35 */
(PID.TID 0000.0001)     ;
(PID.TID 0000.0001) PTRACERS_useGMRedi = /* apply GM-Redi */
(PID.TID 0000.0001)                   F
(PID.TID 0000.0001)     ;
(PID.TID 0000.0001) PTRACERS_useKPP = /* apply KPP scheme */
(PID.TID 0000.0001)                   F
(PID.TID 0000.0001)     ;
(PID.TID 0000.0001) PTRACERS_ref = /* Reference vertical profile */
(PID.TID 0000.0001)    35 @  0.000000000000000E+00              /* K =  1: 35 */
(PID.TID 0000.0001)     ;
(PID.TID 0000.0001) PTRACERS_EvPrRn =/* tracer conc. in Evap. & Rain */
(PID.TID 0000.0001)                 1.234567000000000E+05
(PID.TID 0000.0001)     ;
(PID.TID 0000.0001)  -----------------------------------
(PID.TID 0000.0001)  tracer number :   96
(PID.TID 0000.0001) PTRACERS_ioLabel = /* tracer IO Label */
(PID.TID 0000.0001)               '96'
(PID.TID 0000.0001)     ;
(PID.TID 0000.0001) PTRACERS_advScheme = /* Advection Scheme */
(PID.TID 0000.0001)                      33
(PID.TID 0000.0001)     ;
(PID.TID 0000.0001) PTRACERS_ImplVertAdv = /* implicit vert. advection flag */
(PID.TID 0000.0001)                   F
(PID.TID 0000.0001)     ;
(PID.TID 0000.0001) PTRACERS_diffKh = /* Laplacian Diffusivity */
(PID.TID 0000.0001)                 0.000000000000000E+00
(PID.TID 0000.0001)     ;
(PID.TID 0000.0001) PTRACERS_diffK4 = /* Biharmonic Diffusivity */
(PID.TID 0000.0001)                 0.000000000000000E+00
(PID.TID 0000.0001)     ;
(PID.TID 0000.0001) PTRACERS_diffKrNr = /* Vertical Diffusivity */
(PID.TID 0000.0001)    35 @  1.000000000000000E-05              /* K =  1: 35 */
(PID.TID 0000.0001)     ;
(PID.TID 0000.0001) PTRACERS_useGMRedi = /* apply GM-Redi */
(PID.TID 0000.0001)                   F
(PID.TID 0000.0001)     ;
(PID.TID 0000.0001) PTRACERS_useKPP = /* apply KPP scheme */
(PID.TID 0000.0001)                   F
(PID.TID 0000.0001)     ;
(PID.TID 0000.0001) PTRACERS_ref = /* Reference vertical profile */
(PID.TID 0000.0001)    35 @  0.000000000000000E+00              /* K =  1: 35 */
(PID.TID 0000.0001)     ;
(PID.TID 0000.0001) PTRACERS_EvPrRn =/* tracer conc. in Evap. & Rain */
(PID.TID 0000.0001)                 1.234567000000000E+05
(PID.TID 0000.0001)     ;
(PID.TID 0000.0001)  -----------------------------------
(PID.TID 0000.0001)  tracer number :   97
(PID.TID 0000.0001) PTRACERS_ioLabel = /* tracer IO Label */
(PID.TID 0000.0001)               '97'
(PID.TID 0000.0001)     ;
(PID.TID 0000.0001) PTRACERS_advScheme = /* Advection Scheme */
(PID.TID 0000.0001)                      33
(PID.TID 0000.0001)     ;
(PID.TID 0000.0001) PTRACERS_ImplVertAdv = /* implicit vert. advection flag */
(PID.TID 0000.0001)                   F
(PID.TID 0000.0001)     ;
(PID.TID 0000.0001) PTRACERS_diffKh = /* Laplacian Diffusivity */
(PID.TID 0000.0001)                 0.000000000000000E+00
(PID.TID 0000.0001)     ;
(PID.TID 0000.0001) PTRACERS_diffK4 = /* Biharmonic Diffusivity */
(PID.TID 0000.0001)                 0.000000000000000E+00
(PID.TID 0000.0001)     ;
(PID.TID 0000.0001) PTRACERS_diffKrNr = /* Vertical Diffusivity */
(PID.TID 0000.0001)    35 @  1.000000000000000E-05              /* K =  1: 35 */
(PID.TID 0000.0001)     ;
(PID.TID 0000.0001) PTRACERS_useGMRedi = /* apply GM-Redi */
(PID.TID 0000.0001)                   F
(PID.TID 0000.0001)     ;
(PID.TID 0000.0001) PTRACERS_useKPP = /* apply KPP scheme */
(PID.TID 0000.0001)                   F
(PID.TID 0000.0001)     ;
(PID.TID 0000.0001) PTRACERS_ref = /* Reference vertical profile */
(PID.TID 0000.0001)    35 @  0.000000000000000E+00              /* K =  1: 35 */
(PID.TID 0000.0001)     ;
(PID.TID 0000.0001) PTRACERS_EvPrRn =/* tracer conc. in Evap. & Rain */
(PID.TID 0000.0001)                 1.234567000000000E+05
(PID.TID 0000.0001)     ;
(PID.TID 0000.0001)  -----------------------------------
(PID.TID 0000.0001)  tracer number :   98
(PID.TID 0000.0001) PTRACERS_ioLabel = /* tracer IO Label */
(PID.TID 0000.0001)               '98'
(PID.TID 0000.0001)     ;
(PID.TID 0000.0001) PTRACERS_advScheme = /* Advection Scheme */
(PID.TID 0000.0001)                      33
(PID.TID 0000.0001)     ;
(PID.TID 0000.0001) PTRACERS_ImplVertAdv = /* implicit vert. advection flag */
(PID.TID 0000.0001)                   F
(PID.TID 0000.0001)     ;
(PID.TID 0000.0001) PTRACERS_diffKh = /* Laplacian Diffusivity */
(PID.TID 0000.0001)                 0.000000000000000E+00
(PID.TID 0000.0001)     ;
(PID.TID 0000.0001) PTRACERS_diffK4 = /* Biharmonic Diffusivity */
(PID.TID 0000.0001)                 0.000000000000000E+00
(PID.TID 0000.0001)     ;
(PID.TID 0000.0001) PTRACERS_diffKrNr = /* Vertical Diffusivity */
(PID.TID 0000.0001)    35 @  1.000000000000000E-05              /* K =  1: 35 */
(PID.TID 0000.0001)     ;
(PID.TID 0000.0001) PTRACERS_useGMRedi = /* apply GM-Redi */
(PID.TID 0000.0001)                   F
(PID.TID 0000.0001)     ;
(PID.TID 0000.0001) PTRACERS_useKPP = /* apply KPP scheme */
(PID.TID 0000.0001)                   F
(PID.TID 0000.0001)     ;
(PID.TID 0000.0001) PTRACERS_ref = /* Reference vertical profile */
(PID.TID 0000.0001)    35 @  0.000000000000000E+00              /* K =  1: 35 */
(PID.TID 0000.0001)     ;
(PID.TID 0000.0001) PTRACERS_EvPrRn =/* tracer conc. in Evap. & Rain */
(PID.TID 0000.0001)                 1.234567000000000E+05
(PID.TID 0000.0001)     ;
(PID.TID 0000.0001)  -----------------------------------
(PID.TID 0000.0001)  tracer number :   99
(PID.TID 0000.0001) PTRACERS_ioLabel = /* tracer IO Label */
(PID.TID 0000.0001)               '99'
(PID.TID 0000.0001)     ;
(PID.TID 0000.0001) PTRACERS_advScheme = /* Advection Scheme */
(PID.TID 0000.0001)                      33
(PID.TID 0000.0001)     ;
(PID.TID 0000.0001) PTRACERS_ImplVertAdv = /* implicit vert. advection flag */
(PID.TID 0000.0001)                   F
(PID.TID 0000.0001)     ;
(PID.TID 0000.0001) PTRACERS_diffKh = /* Laplacian Diffusivity */
(PID.TID 0000.0001)                 0.000000000000000E+00
(PID.TID 0000.0001)     ;
(PID.TID 0000.0001) PTRACERS_diffK4 = /* Biharmonic Diffusivity */
(PID.TID 0000.0001)                 0.000000000000000E+00
(PID.TID 0000.0001)     ;
(PID.TID 0000.0001) PTRACERS_diffKrNr = /* Vertical Diffusivity */
(PID.TID 0000.0001)    35 @  1.000000000000000E-05              /* K =  1: 35 */
(PID.TID 0000.0001)     ;
(PID.TID 0000.0001) PTRACERS_useGMRedi = /* apply GM-Redi */
(PID.TID 0000.0001)                   F
(PID.TID 0000.0001)     ;
(PID.TID 0000.0001) PTRACERS_useKPP = /* apply KPP scheme */
(PID.TID 0000.0001)                   F
(PID.TID 0000.0001)     ;
(PID.TID 0000.0001) PTRACERS_ref = /* Reference vertical profile */
(PID.TID 0000.0001)    35 @  0.000000000000000E+00              /* K =  1: 35 */
(PID.TID 0000.0001)     ;
(PID.TID 0000.0001) PTRACERS_EvPrRn =/* tracer conc. in Evap. & Rain */
(PID.TID 0000.0001)                 1.234567000000000E+05
(PID.TID 0000.0001)     ;
(PID.TID 0000.0001)  -----------------------------------
(PID.TID 0000.0001)  GCHEM_READPARMS: opening data.gchem
(PID.TID 0000.0001)  OPEN_COPY_DATA_FILE: opening file data.gchem
(PID.TID 0000.0001) // =======================================================
(PID.TID 0000.0001) // Parameter file "data.gchem"
(PID.TID 0000.0001) // =======================================================
(PID.TID 0000.0001) > &GCHEM_PARM01
(PID.TID 0000.0001) >  useDARWIN=.TRUE.,
(PID.TID 0000.0001) >  nsubtime=1,
(PID.TID 0000.0001) > /
(PID.TID 0000.0001) 
(PID.TID 0000.0001)  GCHEM_READPARMS: finished reading data.gchem
(PID.TID 0000.0001)  DARWIN_READPARMS: opening data.darwin
(PID.TID 0000.0001)  OPEN_COPY_DATA_FILE: opening file data.darwin
(PID.TID 0000.0001) // =======================================================
(PID.TID 0000.0001) // Parameter file "data.darwin"
(PID.TID 0000.0001) // =======================================================
(PID.TID 0000.0001) > &DARWIN_FORCING
(PID.TID 0000.0001) > darwin_ironFile='../input/input/loc1_FeFlux_monsurf.bin',
(PID.TID 0000.0001) > darwin_PARFile='../input/input/loc1_PAR_monsurf.bin',
(PID.TID 0000.0001) > darwin_seed=11231,
(PID.TID 0000.0001) > /
(PID.TID 0000.0001) 
(PID.TID 0000.0001)  DARWIN_READPARMS: finished reading data.darwin
(PID.TID 0000.0001) SET_PARMS: done
(PID.TID 0000.0001) Enter INI_VERTICAL_GRID: setInterFDr=    T ; setCenterDr=    F
(PID.TID 0000.0001) %MON XC_max                       =   3.3550000000000E+02
(PID.TID 0000.0001) %MON XC_min                       =   3.3550000000000E+02
(PID.TID 0000.0001) %MON XC_mean                      =   3.3550000000000E+02
(PID.TID 0000.0001) %MON XC_sd                        =   0.0000000000000E+00
(PID.TID 0000.0001) %MON XG_max                       =   3.3500000000000E+02
(PID.TID 0000.0001) %MON XG_min                       =   3.3500000000000E+02
(PID.TID 0000.0001) %MON XG_mean                      =   3.3500000000000E+02
(PID.TID 0000.0001) %MON XG_sd                        =   0.0000000000000E+00
(PID.TID 0000.0001) %MON DXC_max                      =   1.0603184087720E+05
(PID.TID 0000.0001) %MON DXC_min                      =   1.0603184087720E+05
(PID.TID 0000.0001) %MON DXC_mean                     =   1.0603184087720E+05
(PID.TID 0000.0001) %MON DXC_sd                       =   0.0000000000000E+00
(PID.TID 0000.0001) %MON DXF_max                      =   1.0603184087720E+05
(PID.TID 0000.0001) %MON DXF_min                      =   1.0603184087720E+05
(PID.TID 0000.0001) %MON DXF_mean                     =   1.0603184087720E+05
(PID.TID 0000.0001) %MON DXF_sd                       =   0.0000000000000E+00
(PID.TID 0000.0001) %MON DXG_max                      =   1.0573606049669E+05
(PID.TID 0000.0001) %MON DXG_min                      =   1.0573606049669E+05
(PID.TID 0000.0001) %MON DXG_mean                     =   1.0573606049669E+05
(PID.TID 0000.0001) %MON DXG_sd                       =   0.0000000000000E+00
(PID.TID 0000.0001) %MON DXV_max                      =   1.0573606049669E+05
(PID.TID 0000.0001) %MON DXV_min                      =   1.0573606049669E+05
(PID.TID 0000.0001) %MON DXV_mean                     =   1.0573606049669E+05
(PID.TID 0000.0001) %MON DXV_sd                       =   0.0000000000000E+00
(PID.TID 0000.0001) %MON YC_max                       =  -1.7500000000000E+01
(PID.TID 0000.0001) %MON YC_min                       =  -1.7500000000000E+01
(PID.TID 0000.0001) %MON YC_mean                      =  -1.7500000000000E+01
(PID.TID 0000.0001) %MON YC_sd                        =   0.0000000000000E+00
(PID.TID 0000.0001) %MON YG_max                       =  -1.8000000000000E+01
(PID.TID 0000.0001) %MON YG_min                       =  -1.8000000000000E+01
(PID.TID 0000.0001) %MON YG_mean                      =  -1.8000000000000E+01
(PID.TID 0000.0001) %MON YG_sd                        =   0.0000000000000E+00
(PID.TID 0000.0001) %MON DYC_max                      =   1.1117747335204E+05
(PID.TID 0000.0001) %MON DYC_min                      =   1.1117747335204E+05
(PID.TID 0000.0001) %MON DYC_mean                     =   1.1117747335204E+05
(PID.TID 0000.0001) %MON DYC_sd                       =   0.0000000000000E+00
(PID.TID 0000.0001) %MON DYF_max                      =   1.1117747335204E+05
(PID.TID 0000.0001) %MON DYF_min                      =   1.1117747335204E+05
(PID.TID 0000.0001) %MON DYF_mean                     =   1.1117747335204E+05
(PID.TID 0000.0001) %MON DYF_sd                       =   0.0000000000000E+00
(PID.TID 0000.0001) %MON DYG_max                      =   1.1117747335204E+05
(PID.TID 0000.0001) %MON DYG_min                      =   1.1117747335204E+05
(PID.TID 0000.0001) %MON DYG_mean                     =   1.1117747335204E+05
(PID.TID 0000.0001) %MON DYG_sd                       =   0.0000000000000E+00
(PID.TID 0000.0001) %MON DYU_max                      =   1.1117747335204E+05
(PID.TID 0000.0001) %MON DYU_min                      =   1.1117747335204E+05
(PID.TID 0000.0001) %MON DYU_mean                     =   1.1117747335204E+05
(PID.TID 0000.0001) %MON DYU_sd                       =   0.0000000000000E+00
(PID.TID 0000.0001) %MON RA_max                       =   1.1788202541770E+10
(PID.TID 0000.0001) %MON RA_min                       =   1.1788202541770E+10
(PID.TID 0000.0001) %MON RA_mean                      =   1.1788202541770E+10
(PID.TID 0000.0001) %MON RA_sd                        =   0.0000000000000E+00
(PID.TID 0000.0001) %MON RAW_max                      =   1.1788202541770E+10
(PID.TID 0000.0001) %MON RAW_min                      =   1.1788202541770E+10
(PID.TID 0000.0001) %MON RAW_mean                     =   1.1788202541770E+10
(PID.TID 0000.0001) %MON RAW_sd                       =   0.0000000000000E+00
(PID.TID 0000.0001) %MON RAS_max                      =   1.1755318843774E+10
(PID.TID 0000.0001) %MON RAS_min                      =   1.1755318843774E+10
(PID.TID 0000.0001) %MON RAS_mean                     =   1.1755318843774E+10
(PID.TID 0000.0001) %MON RAS_sd                       =   0.0000000000000E+00
(PID.TID 0000.0001) %MON RAZ_max                      =   1.1755318843774E+10
(PID.TID 0000.0001) %MON RAZ_min                      =   1.1755318843774E+10
(PID.TID 0000.0001) %MON RAZ_mean                     =   1.1755318843774E+10
(PID.TID 0000.0001) %MON RAZ_sd                       =   0.0000000000000E+00
(PID.TID 0000.0001) %MON AngleCS_max                  =   1.0000000000000E+00
(PID.TID 0000.0001) %MON AngleCS_min                  =   1.0000000000000E+00
(PID.TID 0000.0001) %MON AngleCS_mean                 =   1.0000000000000E+00
(PID.TID 0000.0001) %MON AngleCS_sd                   =   0.0000000000000E+00
(PID.TID 0000.0001) %MON AngleSN_max                  =   0.0000000000000E+00
(PID.TID 0000.0001) %MON AngleSN_min                  =   0.0000000000000E+00
(PID.TID 0000.0001) %MON AngleSN_mean                 =   0.0000000000000E+00
(PID.TID 0000.0001) %MON AngleSN_sd                   =   0.0000000000000E+00
(PID.TID 0000.0001)  MDS_READ_FIELD: opening global file: ../input/input/bathyneg.bin
(PID.TID 0000.0001) // =======================================================
(PID.TID 0000.0001) // Field Model R_low (ini_masks_etc) at iteration          1
(PID.TID 0000.0001) // CMIN =         -3.495000000000000E+03
(PID.TID 0000.0001) // CMAX =         -3.495000000000000E+03
(PID.TID 0000.0001) // CINT =          0.000000000000000E+00
(PID.TID 0000.0001) // SYMBOLS (CMIN->CMAX): -abcdefghijklmnopqrstuvwxyz+
(PID.TID 0000.0001) //                  0.0: .
(PID.TID 0000.0001) // RANGE I (Lo:Hi:Step):(  -1:   3:   1)
(PID.TID 0000.0001) // RANGE J (Lo:Hi:Step):(   3:  -1:  -1)
(PID.TID 0000.0001) // RANGE K (Lo:Hi:Step):(   1:   1:   1)
(PID.TID 0000.0001) // =======================================================
(PID.TID 0000.0001) // =======================================================
(PID.TID 0000.0001) // END OF FIELD                                          =
(PID.TID 0000.0001) // =======================================================
(PID.TID 0000.0001) 
(PID.TID 0000.0001) // =======================================================
(PID.TID 0000.0001) // Field Model Ro_surf (ini_masks_etc) at iteration          1
(PID.TID 0000.0001) // CMIN =          1.000000000000000E+32
(PID.TID 0000.0001) // CMAX =         -1.000000000000000E+32
(PID.TID 0000.0001) // CINT =          0.000000000000000E+00
(PID.TID 0000.0001) // SYMBOLS (CMIN->CMAX): -abcdefghijklmnopqrstuvwxyz+
(PID.TID 0000.0001) //                  0.0: .
(PID.TID 0000.0001) // RANGE I (Lo:Hi:Step):(  -1:   3:   1)
(PID.TID 0000.0001) // RANGE J (Lo:Hi:Step):(   3:  -1:  -1)
(PID.TID 0000.0001) // RANGE K (Lo:Hi:Step):(   1:   1:   1)
(PID.TID 0000.0001) // =======================================================
(PID.TID 0000.0001) // =======================================================
(PID.TID 0000.0001) // END OF FIELD                                          =
(PID.TID 0000.0001) // =======================================================
(PID.TID 0000.0001) 
(PID.TID 0000.0001) // =======================================================
(PID.TID 0000.0001) // Field hFacC at iteration          1
(PID.TID 0000.0001) // CMIN =          1.000000000000000E+00
(PID.TID 0000.0001) // CMAX =          1.000000000000000E+00
(PID.TID 0000.0001) // CINT =          0.000000000000000E+00
(PID.TID 0000.0001) // SYMBOLS (CMIN->CMAX): -abcdefghijklmnopqrstuvwxyz+
(PID.TID 0000.0001) //                  0.0: .
(PID.TID 0000.0001) // RANGE I (Lo:Hi:Step):(  -1:   3:   1)
(PID.TID 0000.0001) // RANGE J (Lo:Hi:Step):(   3:  -1:  -1)
(PID.TID 0000.0001) // RANGE K (Lo:Hi:Step):(   1:   1:   1)
(PID.TID 0000.0001) // =======================================================
(PID.TID 0000.0001) // =======================================================
(PID.TID 0000.0001) // END OF FIELD                                          =
(PID.TID 0000.0001) // =======================================================
(PID.TID 0000.0001) 
(PID.TID 0000.0001) // =======================================================
(PID.TID 0000.0001) // Field hFacW at iteration          1
(PID.TID 0000.0001) // CMIN =          1.000000000000000E+00
(PID.TID 0000.0001) // CMAX =          1.000000000000000E+00
(PID.TID 0000.0001) // CINT =          0.000000000000000E+00
(PID.TID 0000.0001) // SYMBOLS (CMIN->CMAX): -abcdefghijklmnopqrstuvwxyz+
(PID.TID 0000.0001) //                  0.0: .
(PID.TID 0000.0001) // RANGE I (Lo:Hi:Step):(  -1:   3:   1)
(PID.TID 0000.0001) // RANGE J (Lo:Hi:Step):(   3:  -1:  -1)
(PID.TID 0000.0001) // RANGE K (Lo:Hi:Step):(   1:   1:   1)
(PID.TID 0000.0001) // =======================================================
(PID.TID 0000.0001) // =======================================================
(PID.TID 0000.0001) // END OF FIELD                                          =
(PID.TID 0000.0001) // =======================================================
(PID.TID 0000.0001) 
(PID.TID 0000.0001) // =======================================================
(PID.TID 0000.0001) // Field hFacS at iteration          1
(PID.TID 0000.0001) // CMIN =          1.000000000000000E+00
(PID.TID 0000.0001) // CMAX =          1.000000000000000E+00
(PID.TID 0000.0001) // CINT =          0.000000000000000E+00
(PID.TID 0000.0001) // SYMBOLS (CMIN->CMAX): -abcdefghijklmnopqrstuvwxyz+
(PID.TID 0000.0001) //                  0.0: .
(PID.TID 0000.0001) // RANGE I (Lo:Hi:Step):(  -1:   3:   1)
(PID.TID 0000.0001) // RANGE J (Lo:Hi:Step):(   3:  -1:  -1)
(PID.TID 0000.0001) // RANGE K (Lo:Hi:Step):(   1:   1:   1)
(PID.TID 0000.0001) // =======================================================
(PID.TID 0000.0001) // =======================================================
(PID.TID 0000.0001) // END OF FIELD                                          =
(PID.TID 0000.0001) // =======================================================
(PID.TID 0000.0001) 
(PID.TID 0000.0001) 
(PID.TID 0000.0001) // ===================================
(PID.TID 0000.0001) // GAD parameters :
(PID.TID 0000.0001) // ===================================
(PID.TID 0000.0001) tempAdvScheme =   /* Temp. Horiz.Advection scheme selector */
(PID.TID 0000.0001)                       3
(PID.TID 0000.0001)     ;
(PID.TID 0000.0001) tempVertAdvScheme =   /* Temp. Vert. Advection scheme selector */
(PID.TID 0000.0001)                       3
(PID.TID 0000.0001)     ;
(PID.TID 0000.0001) tempMultiDimAdvec =   /* use Muti-Dim Advec method for Temp */
(PID.TID 0000.0001)                   F
(PID.TID 0000.0001)     ;
(PID.TID 0000.0001) tempSOM_Advection = /* use 2nd Order Moment Advection for Temp */
(PID.TID 0000.0001)                   F
(PID.TID 0000.0001)     ;
(PID.TID 0000.0001) AdamsBashforthGt = /* apply Adams-Bashforth extrapolation on Gt */
(PID.TID 0000.0001)                   T
(PID.TID 0000.0001)     ;
(PID.TID 0000.0001) AdamsBashforth_T = /* apply Adams-Bashforth extrapolation on Temp */
(PID.TID 0000.0001)                   F
(PID.TID 0000.0001)     ;
(PID.TID 0000.0001) saltAdvScheme =   /* Salt. Horiz.advection scheme selector */
(PID.TID 0000.0001)                       3
(PID.TID 0000.0001)     ;
(PID.TID 0000.0001) saltVertAdvScheme =   /* Salt. Vert. Advection scheme selector */
(PID.TID 0000.0001)                       3
(PID.TID 0000.0001)     ;
(PID.TID 0000.0001) saltMultiDimAdvec =   /* use Muti-Dim Advec method for Salt */
(PID.TID 0000.0001)                   F
(PID.TID 0000.0001)     ;
(PID.TID 0000.0001) saltSOM_Advection = /* use 2nd Order Moment Advection for Salt */
(PID.TID 0000.0001)                   F
(PID.TID 0000.0001)     ;
(PID.TID 0000.0001) AdamsBashforthGs = /* apply Adams-Bashforth extrapolation on Gs */
(PID.TID 0000.0001)                   F
(PID.TID 0000.0001)     ;
(PID.TID 0000.0001) AdamsBashforth_S = /* apply Adams-Bashforth extrapolation on Salt */
(PID.TID 0000.0001)                   F
(PID.TID 0000.0001)     ;
(PID.TID 0000.0001) // ===================================
(PID.TID 0000.0001) PTRACERS_INIT_FIXED: PTRACERS_SOM_Advection(   1) =     F
(PID.TID 0000.0001) PTRACERS_INIT_FIXED: PTRACERS_SOM_Advection(   2) =     F
(PID.TID 0000.0001) PTRACERS_INIT_FIXED: PTRACERS_SOM_Advection(   3) =     F
(PID.TID 0000.0001) PTRACERS_INIT_FIXED: PTRACERS_SOM_Advection(   4) =     F
(PID.TID 0000.0001) PTRACERS_INIT_FIXED: PTRACERS_SOM_Advection(   5) =     F
(PID.TID 0000.0001) PTRACERS_INIT_FIXED: PTRACERS_SOM_Advection(   6) =     F
(PID.TID 0000.0001) PTRACERS_INIT_FIXED: PTRACERS_SOM_Advection(   7) =     F
(PID.TID 0000.0001) PTRACERS_INIT_FIXED: PTRACERS_SOM_Advection(   8) =     F
(PID.TID 0000.0001) PTRACERS_INIT_FIXED: PTRACERS_SOM_Advection(   9) =     F
(PID.TID 0000.0001) PTRACERS_INIT_FIXED: PTRACERS_SOM_Advection(  10) =     F
(PID.TID 0000.0001) PTRACERS_INIT_FIXED: PTRACERS_SOM_Advection(  11) =     F
(PID.TID 0000.0001) PTRACERS_INIT_FIXED: PTRACERS_SOM_Advection(  12) =     F
(PID.TID 0000.0001) PTRACERS_INIT_FIXED: PTRACERS_SOM_Advection(  13) =     F
(PID.TID 0000.0001) PTRACERS_INIT_FIXED: PTRACERS_SOM_Advection(  14) =     F
(PID.TID 0000.0001) PTRACERS_INIT_FIXED: PTRACERS_SOM_Advection(  15) =     F
(PID.TID 0000.0001) PTRACERS_INIT_FIXED: PTRACERS_SOM_Advection(  16) =     F
(PID.TID 0000.0001) PTRACERS_INIT_FIXED: PTRACERS_SOM_Advection(  17) =     F
(PID.TID 0000.0001) PTRACERS_INIT_FIXED: PTRACERS_SOM_Advection(  18) =     F
(PID.TID 0000.0001) PTRACERS_INIT_FIXED: PTRACERS_SOM_Advection(  19) =     F
(PID.TID 0000.0001) PTRACERS_INIT_FIXED: PTRACERS_SOM_Advection(  20) =     F
(PID.TID 0000.0001) PTRACERS_INIT_FIXED: PTRACERS_SOM_Advection(  21) =     F
(PID.TID 0000.0001) PTRACERS_INIT_FIXED: PTRACERS_SOM_Advection(  22) =     F
(PID.TID 0000.0001) PTRACERS_INIT_FIXED: PTRACERS_SOM_Advection(  23) =     F
(PID.TID 0000.0001) PTRACERS_INIT_FIXED: PTRACERS_SOM_Advection(  24) =     F
(PID.TID 0000.0001) PTRACERS_INIT_FIXED: PTRACERS_SOM_Advection(  25) =     F
(PID.TID 0000.0001) PTRACERS_INIT_FIXED: PTRACERS_SOM_Advection(  26) =     F
(PID.TID 0000.0001) PTRACERS_INIT_FIXED: PTRACERS_SOM_Advection(  27) =     F
(PID.TID 0000.0001) PTRACERS_INIT_FIXED: PTRACERS_SOM_Advection(  28) =     F
(PID.TID 0000.0001) PTRACERS_INIT_FIXED: PTRACERS_SOM_Advection(  29) =     F
(PID.TID 0000.0001) PTRACERS_INIT_FIXED: PTRACERS_SOM_Advection(  30) =     F
(PID.TID 0000.0001) PTRACERS_INIT_FIXED: PTRACERS_SOM_Advection(  31) =     F
(PID.TID 0000.0001) PTRACERS_INIT_FIXED: PTRACERS_SOM_Advection(  32) =     F
(PID.TID 0000.0001) PTRACERS_INIT_FIXED: PTRACERS_SOM_Advection(  33) =     F
(PID.TID 0000.0001) PTRACERS_INIT_FIXED: PTRACERS_SOM_Advection(  34) =     F
(PID.TID 0000.0001) PTRACERS_INIT_FIXED: PTRACERS_SOM_Advection(  35) =     F
(PID.TID 0000.0001) PTRACERS_INIT_FIXED: PTRACERS_SOM_Advection(  36) =     F
(PID.TID 0000.0001) PTRACERS_INIT_FIXED: PTRACERS_SOM_Advection(  37) =     F
(PID.TID 0000.0001) PTRACERS_INIT_FIXED: PTRACERS_SOM_Advection(  38) =     F
(PID.TID 0000.0001) PTRACERS_INIT_FIXED: PTRACERS_SOM_Advection(  39) =     F
(PID.TID 0000.0001) PTRACERS_INIT_FIXED: PTRACERS_SOM_Advection(  40) =     F
(PID.TID 0000.0001) PTRACERS_INIT_FIXED: PTRACERS_SOM_Advection(  41) =     F
(PID.TID 0000.0001) PTRACERS_INIT_FIXED: PTRACERS_SOM_Advection(  42) =     F
(PID.TID 0000.0001) PTRACERS_INIT_FIXED: PTRACERS_SOM_Advection(  43) =     F
(PID.TID 0000.0001) PTRACERS_INIT_FIXED: PTRACERS_SOM_Advection(  44) =     F
(PID.TID 0000.0001) PTRACERS_INIT_FIXED: PTRACERS_SOM_Advection(  45) =     F
(PID.TID 0000.0001) PTRACERS_INIT_FIXED: PTRACERS_SOM_Advection(  46) =     F
(PID.TID 0000.0001) PTRACERS_INIT_FIXED: PTRACERS_SOM_Advection(  47) =     F
(PID.TID 0000.0001) PTRACERS_INIT_FIXED: PTRACERS_SOM_Advection(  48) =     F
(PID.TID 0000.0001) PTRACERS_INIT_FIXED: PTRACERS_SOM_Advection(  49) =     F
(PID.TID 0000.0001) PTRACERS_INIT_FIXED: PTRACERS_SOM_Advection(  50) =     F
(PID.TID 0000.0001) PTRACERS_INIT_FIXED: PTRACERS_SOM_Advection(  51) =     F
(PID.TID 0000.0001) PTRACERS_INIT_FIXED: PTRACERS_SOM_Advection(  52) =     F
(PID.TID 0000.0001) PTRACERS_INIT_FIXED: PTRACERS_SOM_Advection(  53) =     F
(PID.TID 0000.0001) PTRACERS_INIT_FIXED: PTRACERS_SOM_Advection(  54) =     F
(PID.TID 0000.0001) PTRACERS_INIT_FIXED: PTRACERS_SOM_Advection(  55) =     F
(PID.TID 0000.0001) PTRACERS_INIT_FIXED: PTRACERS_SOM_Advection(  56) =     F
(PID.TID 0000.0001) PTRACERS_INIT_FIXED: PTRACERS_SOM_Advection(  57) =     F
(PID.TID 0000.0001) PTRACERS_INIT_FIXED: PTRACERS_SOM_Advection(  58) =     F
(PID.TID 0000.0001) PTRACERS_INIT_FIXED: PTRACERS_SOM_Advection(  59) =     F
(PID.TID 0000.0001) PTRACERS_INIT_FIXED: PTRACERS_SOM_Advection(  60) =     F
(PID.TID 0000.0001) PTRACERS_INIT_FIXED: PTRACERS_SOM_Advection(  61) =     F
(PID.TID 0000.0001) PTRACERS_INIT_FIXED: PTRACERS_SOM_Advection(  62) =     F
(PID.TID 0000.0001) PTRACERS_INIT_FIXED: PTRACERS_SOM_Advection(  63) =     F
(PID.TID 0000.0001) PTRACERS_INIT_FIXED: PTRACERS_SOM_Advection(  64) =     F
(PID.TID 0000.0001) PTRACERS_INIT_FIXED: PTRACERS_SOM_Advection(  65) =     F
(PID.TID 0000.0001) PTRACERS_INIT_FIXED: PTRACERS_SOM_Advection(  66) =     F
(PID.TID 0000.0001) PTRACERS_INIT_FIXED: PTRACERS_SOM_Advection(  67) =     F
(PID.TID 0000.0001) PTRACERS_INIT_FIXED: PTRACERS_SOM_Advection(  68) =     F
(PID.TID 0000.0001) PTRACERS_INIT_FIXED: PTRACERS_SOM_Advection(  69) =     F
(PID.TID 0000.0001) PTRACERS_INIT_FIXED: PTRACERS_SOM_Advection(  70) =     F
(PID.TID 0000.0001) PTRACERS_INIT_FIXED: PTRACERS_SOM_Advection(  71) =     F
(PID.TID 0000.0001) PTRACERS_INIT_FIXED: PTRACERS_SOM_Advection(  72) =     F
(PID.TID 0000.0001) PTRACERS_INIT_FIXED: PTRACERS_SOM_Advection(  73) =     F
(PID.TID 0000.0001) PTRACERS_INIT_FIXED: PTRACERS_SOM_Advection(  74) =     F
(PID.TID 0000.0001) PTRACERS_INIT_FIXED: PTRACERS_SOM_Advection(  75) =     F
(PID.TID 0000.0001) PTRACERS_INIT_FIXED: PTRACERS_SOM_Advection(  76) =     F
(PID.TID 0000.0001) PTRACERS_INIT_FIXED: PTRACERS_SOM_Advection(  77) =     F
(PID.TID 0000.0001) PTRACERS_INIT_FIXED: PTRACERS_SOM_Advection(  78) =     F
(PID.TID 0000.0001) PTRACERS_INIT_FIXED: PTRACERS_SOM_Advection(  79) =     F
(PID.TID 0000.0001) PTRACERS_INIT_FIXED: PTRACERS_SOM_Advection(  80) =     F
(PID.TID 0000.0001) PTRACERS_INIT_FIXED: PTRACERS_SOM_Advection(  81) =     F
(PID.TID 0000.0001) PTRACERS_INIT_FIXED: PTRACERS_SOM_Advection(  82) =     F
(PID.TID 0000.0001) PTRACERS_INIT_FIXED: PTRACERS_SOM_Advection(  83) =     F
(PID.TID 0000.0001) PTRACERS_INIT_FIXED: PTRACERS_SOM_Advection(  84) =     F
(PID.TID 0000.0001) PTRACERS_INIT_FIXED: PTRACERS_SOM_Advection(  85) =     F
(PID.TID 0000.0001) PTRACERS_INIT_FIXED: PTRACERS_SOM_Advection(  86) =     F
(PID.TID 0000.0001) PTRACERS_INIT_FIXED: PTRACERS_SOM_Advection(  87) =     F
(PID.TID 0000.0001) PTRACERS_INIT_FIXED: PTRACERS_SOM_Advection(  88) =     F
(PID.TID 0000.0001) PTRACERS_INIT_FIXED: PTRACERS_SOM_Advection(  89) =     F
(PID.TID 0000.0001) PTRACERS_INIT_FIXED: PTRACERS_SOM_Advection(  90) =     F
(PID.TID 0000.0001) PTRACERS_INIT_FIXED: PTRACERS_SOM_Advection(  91) =     F
(PID.TID 0000.0001) PTRACERS_INIT_FIXED: PTRACERS_SOM_Advection(  92) =     F
(PID.TID 0000.0001) PTRACERS_INIT_FIXED: PTRACERS_SOM_Advection(  93) =     F
(PID.TID 0000.0001) PTRACERS_INIT_FIXED: PTRACERS_SOM_Advection(  94) =     F
(PID.TID 0000.0001) PTRACERS_INIT_FIXED: PTRACERS_SOM_Advection(  95) =     F
(PID.TID 0000.0001) PTRACERS_INIT_FIXED: PTRACERS_SOM_Advection(  96) =     F
(PID.TID 0000.0001) PTRACERS_INIT_FIXED: PTRACERS_SOM_Advection(  97) =     F
(PID.TID 0000.0001) PTRACERS_INIT_FIXED: PTRACERS_SOM_Advection(  98) =     F
(PID.TID 0000.0001) PTRACERS_INIT_FIXED: PTRACERS_SOM_Advection(  99) =     F
(PID.TID 0000.0001) // =======================================================
(PID.TID 0000.0001) // Darwin loading parameters
(PID.TID 0000.0001) // =======================================================
(PID.TID 0000.0001) %MON fCori_max                    =  -4.3855676645210E-05
(PID.TID 0000.0001) %MON fCori_min                    =  -4.3855676645210E-05
(PID.TID 0000.0001) %MON fCori_mean                   =  -4.3855676645210E-05
(PID.TID 0000.0001) %MON fCori_sd                     =   0.0000000000000E+00
(PID.TID 0000.0001) %MON fCoriG_max                   =  -4.5067801836625E-05
(PID.TID 0000.0001) %MON fCoriG_min                   =  -4.5067801836625E-05
(PID.TID 0000.0001) %MON fCoriG_mean                  =  -4.5067801836625E-05
(PID.TID 0000.0001) %MON fCoriG_sd                    =   0.0000000000000E+00
(PID.TID 0000.0001) %MON fCoriCos_max                 =   1.3909243610207E-04
(PID.TID 0000.0001) %MON fCoriCos_min                 =   1.3909243610207E-04
(PID.TID 0000.0001) %MON fCoriCos_mean                =   1.3909243610207E-04
(PID.TID 0000.0001) %MON fCoriCos_sd                  =   0.0000000000000E+00
(PID.TID 0000.0001) INI_CG2D: CG2D normalisation factor =  2.7288038648017932E-04
(PID.TID 0000.0001) 
(PID.TID 0000.0001) // =======================================================
(PID.TID 0000.0001) // Model configuration
(PID.TID 0000.0001) // =======================================================
(PID.TID 0000.0001) //
(PID.TID 0000.0001) // "Physical" paramters ( PARM01 in namelist )
(PID.TID 0000.0001) //
(PID.TID 0000.0001) buoyancyRelation = /* Type of relation to get Buoyancy */
(PID.TID 0000.0001)               'OCEANIC'
(PID.TID 0000.0001)     ;
(PID.TID 0000.0001) fluidIsAir  =  /* fluid major constituent is Air */
(PID.TID 0000.0001)                   F
(PID.TID 0000.0001)     ;
(PID.TID 0000.0001) fluidIsWater=  /* fluid major constituent is Water */
(PID.TID 0000.0001)                   T
(PID.TID 0000.0001)     ;
(PID.TID 0000.0001) usingPCoords =  /* use p (or p*) vertical coordinate */
(PID.TID 0000.0001)                   F
(PID.TID 0000.0001)     ;
(PID.TID 0000.0001) usingZCoords =  /* use z (or z*) vertical coordinate */
(PID.TID 0000.0001)                   T
(PID.TID 0000.0001)     ;
(PID.TID 0000.0001) tRef =   /* Reference temperature profile ( oC or K ) */
(PID.TID 0000.0001)                 2.650000000000000E+01,      /* K =  1 */
(PID.TID 0000.0001)                 2.610000000000000E+01,      /* K =  2 */
(PID.TID 0000.0001)                 2.600000000000000E+01,      /* K =  3 */
(PID.TID 0000.0001)                 2.550000000000000E+01,      /* K =  4 */
(PID.TID 0000.0001)                 2.540000000000000E+01,      /* K =  5 */
(PID.TID 0000.0001)                 2.490000000000000E+01,      /* K =  6 */
(PID.TID 0000.0001)                 2.450000000000000E+01,      /* K =  7 */
(PID.TID 0000.0001)                 2.400000000000000E+01,      /* K =  8 */
(PID.TID 0000.0001)                 2.370000000000000E+01,      /* K =  9 */
(PID.TID 0000.0001)                 2.330000000000000E+01,      /* K = 10 */
(PID.TID 0000.0001)                 2.310000000000000E+01,      /* K = 11 */
(PID.TID 0000.0001)                 2.280000000000000E+01,      /* K = 12 */
(PID.TID 0000.0001)                 2.250000000000000E+01,      /* K = 13 */
(PID.TID 0000.0001)                 2.210000000000000E+01,      /* K = 14 */
(PID.TID 0000.0001)                 2.160000000000000E+01,      /* K = 15 */
(PID.TID 0000.0001)                 2.060000000000000E+01,      /* K = 16 */
(PID.TID 0000.0001)                 1.950000000000000E+01,      /* K = 17 */
(PID.TID 0000.0001)                 1.840000000000000E+01,      /* K = 18 */
(PID.TID 0000.0001)                 1.730000000000000E+01,      /* K = 19 */
(PID.TID 0000.0001)                 1.660000000000000E+01,      /* K = 20 */
(PID.TID 0000.0001)                 1.550000000000000E+01,      /* K = 21 */
(PID.TID 0000.0001)                 1.460000000000000E+01,      /* K = 22 */
(PID.TID 0000.0001)                 1.380000000000000E+01,      /* K = 23 */
(PID.TID 0000.0001)                 1.310000000000000E+01,      /* K = 24 */
(PID.TID 0000.0001)                 1.160000000000000E+01,      /* K = 25 */
(PID.TID 0000.0001)                 1.010000000000000E+01,      /* K = 26 */
(PID.TID 0000.0001)                 7.700000000000000E+00,      /* K = 27 */
(PID.TID 0000.0001)                 5.300000000000000E+00,      /* K = 28 */
(PID.TID 0000.0001)                 4.100000000000000E+00,      /* K = 29 */
(PID.TID 0000.0001)     2 @  3.700000000000000E+00,             /* K = 30: 31 */
(PID.TID 0000.0001)                 3.400000000000000E+00,      /* K = 32 */
(PID.TID 0000.0001)                 3.000000000000000E+00,      /* K = 33 */
(PID.TID 0000.0001)                 2.800000000000000E+00,      /* K = 34 */
(PID.TID 0000.0001)                 2.600000000000000E+00       /* K = 35 */
(PID.TID 0000.0001)     ;
(PID.TID 0000.0001) sRef =   /* Reference salinity profile ( psu ) */
(PID.TID 0000.0001)    35 @  3.500000000000000E+01              /* K =  1: 35 */
(PID.TID 0000.0001)     ;
(PID.TID 0000.0001) viscAh =   /* Lateral eddy viscosity ( m^2/s ) */
(PID.TID 0000.0001)                 0.000000000000000E+00
(PID.TID 0000.0001)     ;
(PID.TID 0000.0001) viscAhMax =   /* Maximum lateral eddy viscosity ( m^2/s ) */
(PID.TID 0000.0001)                 1.000000000000000E+21
(PID.TID 0000.0001)     ;
(PID.TID 0000.0001) viscAhGrid =   /* Grid dependent lateral eddy viscosity ( non-dim. ) */
(PID.TID 0000.0001)                 0.000000000000000E+00
(PID.TID 0000.0001)     ;
(PID.TID 0000.0001) useFullLeith =   /* Use Full Form of Leith Viscosity on/off flag*/
(PID.TID 0000.0001)                   F
(PID.TID 0000.0001)     ;
(PID.TID 0000.0001) useStrainTensionVisc =   /* Use StrainTension Form of Viscous Operator on/off flag*/
(PID.TID 0000.0001)                   F
(PID.TID 0000.0001)     ;
(PID.TID 0000.0001) useAreaViscLength =   /* Use area for visc length instead of geom. mean*/
(PID.TID 0000.0001)                   F
(PID.TID 0000.0001)     ;
(PID.TID 0000.0001) viscC2leith = /* Leith harmonic visc. factor (on grad(vort),non-dim.) */
(PID.TID 0000.0001)                 0.000000000000000E+00
(PID.TID 0000.0001)     ;
(PID.TID 0000.0001) viscC2leithD = /* Leith harmonic viscosity factor (on grad(div),non-dim.) */
(PID.TID 0000.0001)                 0.000000000000000E+00
(PID.TID 0000.0001)     ;
(PID.TID 0000.0001) viscC2smag =   /* Smagorinsky harmonic viscosity factor (non-dim.) */
(PID.TID 0000.0001)                 0.000000000000000E+00
(PID.TID 0000.0001)     ;
(PID.TID 0000.0001) viscA4 =   /* Lateral biharmonic viscosity ( m^4/s ) */
(PID.TID 0000.0001)                 0.000000000000000E+00
(PID.TID 0000.0001)     ;
(PID.TID 0000.0001) viscA4Max =   /* Maximum biharmonic viscosity ( m^2/s ) */
(PID.TID 0000.0001)                 1.000000000000000E+21
(PID.TID 0000.0001)     ;
(PID.TID 0000.0001) viscA4Grid =   /* Grid dependent biharmonic viscosity ( non-dim. ) */
(PID.TID 0000.0001)                 0.000000000000000E+00
(PID.TID 0000.0001)     ;
(PID.TID 0000.0001) viscC4leith = /* Leith biharm viscosity factor (on grad(vort), non-dim.) */
(PID.TID 0000.0001)                 0.000000000000000E+00
(PID.TID 0000.0001)     ;
(PID.TID 0000.0001) viscC4leithD = /* Leith biharm viscosity factor (on grad(div), non-dim.) */
(PID.TID 0000.0001)                 0.000000000000000E+00
(PID.TID 0000.0001)     ;
(PID.TID 0000.0001) viscC4Smag = /* Smagorinsky biharm viscosity factor (non-dim) */
(PID.TID 0000.0001)                 0.000000000000000E+00
(PID.TID 0000.0001)     ;
(PID.TID 0000.0001) no_slip_sides =  /* Viscous BCs: No-slip sides */
(PID.TID 0000.0001)                   F
(PID.TID 0000.0001)     ;
(PID.TID 0000.0001) sideDragFactor = /* side-drag scaling factor (non-dim) */
(PID.TID 0000.0001)                 2.000000000000000E+00
(PID.TID 0000.0001)     ;
(PID.TID 0000.0001) viscAr =   /* Vertical eddy viscosity ( m^2/s ) */
(PID.TID 0000.0001)                 0.000000000000000E+00
(PID.TID 0000.0001)     ;
(PID.TID 0000.0001) no_slip_bottom =  /* Viscous BCs: No-slip bottom */
(PID.TID 0000.0001)                   T
(PID.TID 0000.0001)     ;
(PID.TID 0000.0001) bottomDragLinear = /* linear bottom-drag coefficient ( m/s ) */
(PID.TID 0000.0001)                 0.000000000000000E+00
(PID.TID 0000.0001)     ;
(PID.TID 0000.0001) bottomDragQuadratic = /* quadratic bottom-drag coeff. ( m/m ) */
(PID.TID 0000.0001)                 0.000000000000000E+00
(PID.TID 0000.0001)     ;
(PID.TID 0000.0001) diffKhT =   /* Laplacian diffusion of heat laterally ( m^2/s ) */
(PID.TID 0000.0001)                 1.000000000000000E+02
(PID.TID 0000.0001)     ;
(PID.TID 0000.0001) diffK4T =   /* Biharmonic diffusion of heat laterally ( m^4/s ) */
(PID.TID 0000.0001)                 0.000000000000000E+00
(PID.TID 0000.0001)     ;
(PID.TID 0000.0001) diffKhS =   /* Laplacian diffusion of salt laterally ( m^2/s ) */
(PID.TID 0000.0001)                 0.000000000000000E+00
(PID.TID 0000.0001)     ;
(PID.TID 0000.0001) diffK4S =   /* Biharmonic diffusion of salt laterally ( m^4/s ) */
(PID.TID 0000.0001)                 0.000000000000000E+00
(PID.TID 0000.0001)     ;
(PID.TID 0000.0001) diffKrNrT = /* vertical profile of vertical diffusion of Temp ( m^2/s )*/
(PID.TID 0000.0001)    35 @  1.000000000000000E-04              /* K =  1: 35 */
(PID.TID 0000.0001)     ;
(PID.TID 0000.0001) diffKrNrS = /* vertical profile of vertical diffusion of Salt ( m^2/s )*/
(PID.TID 0000.0001)    35 @  0.000000000000000E+00              /* K =  1: 35 */
(PID.TID 0000.0001)     ;
(PID.TID 0000.0001) diffKrBL79surf = /* Surface diffusion for Bryan and Lewis 79 ( m^2/s ) */
(PID.TID 0000.0001)                 0.000000000000000E+00
(PID.TID 0000.0001)     ;
(PID.TID 0000.0001) diffKrBL79deep = /* Deep diffusion for Bryan and Lewis 1979 ( m^2/s ) */
(PID.TID 0000.0001)                 0.000000000000000E+00
(PID.TID 0000.0001)     ;
(PID.TID 0000.0001) diffKrBL79scl = /* Depth scale for Bryan and Lewis 1979 ( m ) */
(PID.TID 0000.0001)                 2.000000000000000E+02
(PID.TID 0000.0001)     ;
(PID.TID 0000.0001) diffKrBL79Ho = /* Turning depth for Bryan and Lewis 1979 ( m ) */
(PID.TID 0000.0001)                -2.000000000000000E+03
(PID.TID 0000.0001)     ;
(PID.TID 0000.0001) ivdc_kappa = /* Implicit Vertical Diffusivity for Convection ( m^2/s ) */
(PID.TID 0000.0001)                 0.000000000000000E+00
(PID.TID 0000.0001)     ;
(PID.TID 0000.0001) hMixCriteria=  /* Criteria for mixed-layer diagnostic */
(PID.TID 0000.0001)                -8.000000000000000E-01
(PID.TID 0000.0001)     ;
(PID.TID 0000.0001) eosType =  /* Type of Equation of State */
(PID.TID 0000.0001)               'JMD95Z'
(PID.TID 0000.0001)     ;
(PID.TID 0000.0001) tAlpha =   /* Linear EOS thermal expansion coefficient ( 1/oC ) */
(PID.TID 0000.0001)                 2.000000000000000E-04
(PID.TID 0000.0001)     ;
(PID.TID 0000.0001) sBeta =   /* Linear EOS haline contraction coefficient ( 1/psu ) */
(PID.TID 0000.0001)                 7.400000000000000E-04
(PID.TID 0000.0001)     ;
(PID.TID 0000.0001) rhonil =   /* Reference density ( kg/m^3 ) */
(PID.TID 0000.0001)                 9.998000000000000E+02
(PID.TID 0000.0001)     ;
(PID.TID 0000.0001) rhoConst =   /* Reference density ( kg/m^3 ) */
(PID.TID 0000.0001)                 9.998000000000000E+02
(PID.TID 0000.0001)     ;
(PID.TID 0000.0001) rhoFacC = /* normalized Reference density @ cell-Center (-) */
(PID.TID 0000.0001)    35 @  1.000000000000000E+00              /* K =  1: 35 */
(PID.TID 0000.0001)     ;
(PID.TID 0000.0001) rhoFacF = /* normalized Reference density @ W-Interface (-) */
(PID.TID 0000.0001)    36 @  1.000000000000000E+00              /* K =  1: 36 */
(PID.TID 0000.0001)     ;
(PID.TID 0000.0001) rhoConstFresh =   /* Reference density ( kg/m^3 ) */
(PID.TID 0000.0001)                 9.998000000000000E+02
(PID.TID 0000.0001)     ;
(PID.TID 0000.0001) gravity =   /* Gravitational acceleration ( m/s^2 ) */
(PID.TID 0000.0001)                 9.810000000000000E+00
(PID.TID 0000.0001)     ;
(PID.TID 0000.0001) gBaro =   /* Barotropic gravity ( m/s^2 ) */
(PID.TID 0000.0001)                 9.810000000000000E+00
(PID.TID 0000.0001)     ;
(PID.TID 0000.0001) rotationPeriod =   /* Rotation Period ( s ) */
(PID.TID 0000.0001)                 8.616400000000000E+04
(PID.TID 0000.0001)     ;
(PID.TID 0000.0001) omega =   /* Angular velocity ( rad/s ) */
(PID.TID 0000.0001)                 7.292123516990375E-05
(PID.TID 0000.0001)     ;
(PID.TID 0000.0001) f0 =   /* Reference coriolis parameter ( 1/s ) */
(PID.TID 0000.0001)                 1.000000000000000E-04
(PID.TID 0000.0001)     ;
(PID.TID 0000.0001) beta =   /* Beta ( 1/(m.s) ) */
(PID.TID 0000.0001)                 9.999999999999999E-12
(PID.TID 0000.0001)     ;
(PID.TID 0000.0001) freeSurfFac =   /* Implicit free surface factor */
(PID.TID 0000.0001)                 0.000000000000000E+00
(PID.TID 0000.0001)     ;
(PID.TID 0000.0001) implicitFreeSurface =   /* Implicit free surface on/off flag */
(PID.TID 0000.0001)                   F
(PID.TID 0000.0001)     ;
(PID.TID 0000.0001) rigidLid =   /* Rigid lid on/off flag */
(PID.TID 0000.0001)                   T
(PID.TID 0000.0001)     ;
(PID.TID 0000.0001) implicSurfPress =   /* Surface Pressure implicit factor (0-1)*/
(PID.TID 0000.0001)                 1.000000000000000E+00
(PID.TID 0000.0001)     ;
(PID.TID 0000.0001) implicDiv2Dflow =   /* Barot. Flow Div. implicit factor (0-1)*/
(PID.TID 0000.0001)                 1.000000000000000E+00
(PID.TID 0000.0001)     ;
(PID.TID 0000.0001) exactConserv =   /* Exact Volume Conservation on/off flag*/
(PID.TID 0000.0001)                   F
(PID.TID 0000.0001)     ;
(PID.TID 0000.0001) linFSConserveTr =   /* Tracer correction for Lin Free Surface on/off flag*/
(PID.TID 0000.0001)                   F
(PID.TID 0000.0001)     ;
(PID.TID 0000.0001) uniformLin_PhiSurf =   /* use uniform Bo_surf on/off flag*/
(PID.TID 0000.0001)                   T
(PID.TID 0000.0001)     ;
(PID.TID 0000.0001) nonlinFreeSurf =   /* Non-linear Free Surf. options (-1,0,1,2,3)*/
(PID.TID 0000.0001)                       0
(PID.TID 0000.0001)     ;
(PID.TID 0000.0001)      -1,0= Off ; 1,2,3= On, 2=+rescale gU,gV, 3=+update cg2d solv.
(PID.TID 0000.0001) hFacInf =   /* lower threshold for hFac (nonlinFreeSurf only)*/
(PID.TID 0000.0001)                 2.000000000000000E-01
(PID.TID 0000.0001)     ;
(PID.TID 0000.0001) hFacSup =   /* upper threshold for hFac (nonlinFreeSurf only)*/
(PID.TID 0000.0001)                 2.000000000000000E+00
(PID.TID 0000.0001)     ;
(PID.TID 0000.0001) select_rStar = /* r* Vertical coord. options (=0 r coord.; > 0 uses r*) */
(PID.TID 0000.0001)                       0
(PID.TID 0000.0001)     ;
(PID.TID 0000.0001) useRealFreshWaterFlux =   /* Real Fresh Water Flux on/off flag*/
(PID.TID 0000.0001)                   F
(PID.TID 0000.0001)     ;
(PID.TID 0000.0001) convertFW2Salt = /* convert F.W. Flux to Salt Flux (-1=use local S)(ppt)*/
(PID.TID 0000.0001)                 3.500000000000000E+01
(PID.TID 0000.0001)     ;
(PID.TID 0000.0001) use3Dsolver = /* use 3-D pressure solver on/off flag */
(PID.TID 0000.0001)                   F
(PID.TID 0000.0001)     ;
(PID.TID 0000.0001) nonHydrostatic =  /* Non-Hydrostatic on/off flag */
(PID.TID 0000.0001)                   F
(PID.TID 0000.0001)     ;
(PID.TID 0000.0001) nh_Am2 = /* Non-Hydrostatic terms scaling factor */
(PID.TID 0000.0001)                 1.000000000000000E+00
(PID.TID 0000.0001)     ;
(PID.TID 0000.0001) quasiHydrostatic = /* Quasi-Hydrostatic on/off flag */
(PID.TID 0000.0001)                   F
(PID.TID 0000.0001)     ;
(PID.TID 0000.0001) momStepping =  /* Momentum equation on/off flag */
(PID.TID 0000.0001)                   F
(PID.TID 0000.0001)     ;
(PID.TID 0000.0001) vectorInvariantMomentum= /* Vector-Invariant Momentum on/off */
(PID.TID 0000.0001)                   F
(PID.TID 0000.0001)     ;
(PID.TID 0000.0001) momAdvection =  /* Momentum advection on/off flag */
(PID.TID 0000.0001)                   F
(PID.TID 0000.0001)     ;
(PID.TID 0000.0001) momViscosity =  /* Momentum viscosity on/off flag */
(PID.TID 0000.0001)                   F
(PID.TID 0000.0001)     ;
(PID.TID 0000.0001) momImplVertAdv =/* Momentum implicit vert. advection on/off*/
(PID.TID 0000.0001)                   F
(PID.TID 0000.0001)     ;
(PID.TID 0000.0001) implicitViscosity = /* Implicit viscosity on/off flag */
(PID.TID 0000.0001)                   F
(PID.TID 0000.0001)     ;
(PID.TID 0000.0001) metricTerms =  /* metric-Terms on/off flag */
(PID.TID 0000.0001)                   T
(PID.TID 0000.0001)     ;
(PID.TID 0000.0001) useNHMTerms = /* Non-Hydrostatic Metric-Terms on/off */
(PID.TID 0000.0001)                   F
(PID.TID 0000.0001)     ;
(PID.TID 0000.0001) useConstantF =  /* use Constant f0 Coriolis flag */
(PID.TID 0000.0001)                   F
(PID.TID 0000.0001)     ;
(PID.TID 0000.0001) useBetaPlaneF = /* use Beta-Plane Coriolis flag */
(PID.TID 0000.0001)                   F
(PID.TID 0000.0001)     ;
(PID.TID 0000.0001) useSphereF  =   /* use Spherical Coriolis flag */
(PID.TID 0000.0001)                   T
(PID.TID 0000.0001)     ;
(PID.TID 0000.0001) use3dCoriolis = /* 3-D Coriolis on/off flag */
(PID.TID 0000.0001)                   F
(PID.TID 0000.0001)     ;
(PID.TID 0000.0001) useCoriolis =  /* Coriolis on/off flag */
(PID.TID 0000.0001)                   F
(PID.TID 0000.0001)     ;
(PID.TID 0000.0001) useCDscheme =  /* CD scheme on/off flag */
(PID.TID 0000.0001)                   F
(PID.TID 0000.0001)     ;
(PID.TID 0000.0001) useJamartWetPoints= /* Coriolis WetPoints method flag */
(PID.TID 0000.0001)                   F
(PID.TID 0000.0001)     ;
(PID.TID 0000.0001) useJamartMomAdv= /* V.I. Non-linear terms Jamart flag */
(PID.TID 0000.0001)                   F
(PID.TID 0000.0001)     ;
(PID.TID 0000.0001) useAbsVorticity= /* Work with f+zeta in Coriolis */
(PID.TID 0000.0001)                   F
(PID.TID 0000.0001)     ;
(PID.TID 0000.0001) selectVortScheme= /* Scheme selector for Vorticity-Term */
(PID.TID 0000.0001)               123456789
(PID.TID 0000.0001)    = 0 : enstrophy (Shallow-Water Eq.) conserving scheme by Sadourny, JAS 75
(PID.TID 0000.0001)    = 1 : same as 0 with modified hFac
(PID.TID 0000.0001)    = 2 : energy conserving scheme (used by Sadourny in JAS 75 paper)
(PID.TID 0000.0001)    = 3 : energy (general) and enstrophy (2D, nonDiv.) conserving scheme
(PID.TID 0000.0001)          from Sadourny (Burridge & Haseler, ECMWF Rep.4, 1977)
(PID.TID 0000.0001)     ;
(PID.TID 0000.0001) upwindVorticity= /* Upwind bias vorticity flag */
(PID.TID 0000.0001)                   F
(PID.TID 0000.0001)     ;
(PID.TID 0000.0001) highOrderVorticity= /* High order interp. of vort. flag */
(PID.TID 0000.0001)                   F
(PID.TID 0000.0001)     ;
(PID.TID 0000.0001) upwindShear= /* Upwind vertical Shear advection flag */
(PID.TID 0000.0001)                   F
(PID.TID 0000.0001)     ;
(PID.TID 0000.0001) selectKEscheme= /* Kinetic Energy scheme selector */
(PID.TID 0000.0001)                       0
(PID.TID 0000.0001)     ;
(PID.TID 0000.0001) momForcing =  /* Momentum forcing on/off flag */
(PID.TID 0000.0001)                   F
(PID.TID 0000.0001)     ;
(PID.TID 0000.0001) momPressureForcing =  /* Momentum pressure term on/off flag */
(PID.TID 0000.0001)                   F
(PID.TID 0000.0001)     ;
(PID.TID 0000.0001) implicitIntGravWave= /* Implicit Internal Gravity Wave flag */
(PID.TID 0000.0001)                   F
(PID.TID 0000.0001)     ;
(PID.TID 0000.0001) staggerTimeStep =   /* Stagger time stepping on/off flag */
(PID.TID 0000.0001)                   F
(PID.TID 0000.0001)     ;
(PID.TID 0000.0001) multiDimAdvection =   /* enable/disable Multi-Dim Advection */
(PID.TID 0000.0001)                   T
(PID.TID 0000.0001)     ;
(PID.TID 0000.0001) useMultiDimAdvec =   /* Multi-Dim Advection is/is-not used */
(PID.TID 0000.0001)                   T
(PID.TID 0000.0001)     ;
(PID.TID 0000.0001) implicitDiffusion =/* Implicit Diffusion on/off flag */
(PID.TID 0000.0001)                   T
(PID.TID 0000.0001)     ;
(PID.TID 0000.0001) tempStepping =  /* Temperature equation on/off flag */
(PID.TID 0000.0001)                   T
(PID.TID 0000.0001)     ;
(PID.TID 0000.0001) tempAdvection=  /* Temperature advection on/off flag */
(PID.TID 0000.0001)                   T
(PID.TID 0000.0001)     ;
(PID.TID 0000.0001) tempImplVertAdv =/* Temp. implicit vert. advection on/off */
(PID.TID 0000.0001)                   F
(PID.TID 0000.0001)     ;
(PID.TID 0000.0001) tempForcing  =  /* Temperature forcing on/off flag */
(PID.TID 0000.0001)                   T
(PID.TID 0000.0001)     ;
(PID.TID 0000.0001) tempIsActiveTr = /* Temp. is a dynamically Active Tracer */
(PID.TID 0000.0001)                   F
(PID.TID 0000.0001)     ;
(PID.TID 0000.0001) saltStepping =  /* Salinity equation on/off flag */
(PID.TID 0000.0001)                   F
(PID.TID 0000.0001)     ;
(PID.TID 0000.0001) saltAdvection=  /* Salinity advection on/off flag */
(PID.TID 0000.0001)                   F
(PID.TID 0000.0001)     ;
(PID.TID 0000.0001) saltImplVertAdv =/* Sali. implicit vert. advection on/off */
(PID.TID 0000.0001)                   F
(PID.TID 0000.0001)     ;
(PID.TID 0000.0001) saltForcing  =  /* Salinity forcing on/off flag */
(PID.TID 0000.0001)                   F
(PID.TID 0000.0001)     ;
(PID.TID 0000.0001) saltIsActiveTr = /* Salt  is a dynamically Active Tracer */
(PID.TID 0000.0001)                   F
(PID.TID 0000.0001)     ;
(PID.TID 0000.0001)  readBinaryPrec = /* Precision used for reading binary files */
(PID.TID 0000.0001)                      32
(PID.TID 0000.0001)     ;
(PID.TID 0000.0001) writeBinaryPrec = /* Precision used for writing binary files */
(PID.TID 0000.0001)                      32
(PID.TID 0000.0001)     ;
(PID.TID 0000.0001)  globalFiles = /* write "global" (=not per tile) files */
(PID.TID 0000.0001)                   F
(PID.TID 0000.0001)     ;
(PID.TID 0000.0001)  useSingleCpuIO = /* only master MPI process does I/O */
(PID.TID 0000.0001)                   T
(PID.TID 0000.0001)     ;
(PID.TID 0000.0001)  debugMode  =  /* Debug Mode on/off flag */
(PID.TID 0000.0001)                   F
(PID.TID 0000.0001)     ;
(PID.TID 0000.0001)    debLevA  =  /* 1rst level of debugging */
(PID.TID 0000.0001)                       1
(PID.TID 0000.0001)     ;
(PID.TID 0000.0001)    debLevB  =  /* 2nd  level of debugging */
(PID.TID 0000.0001)                       2
(PID.TID 0000.0001)     ;
(PID.TID 0000.0001)  debugLevel =  /* select debugging level */
(PID.TID 0000.0001)                       1
(PID.TID 0000.0001)     ;
(PID.TID 0000.0001) //
(PID.TID 0000.0001) // Elliptic solver(s) paramters ( PARM02 in namelist )
(PID.TID 0000.0001) //
(PID.TID 0000.0001) cg2dMaxIters =   /* Upper limit on 2d con. grad iterations  */
(PID.TID 0000.0001)                     300
(PID.TID 0000.0001)     ;
(PID.TID 0000.0001) cg2dChkResFreq =   /* 2d con. grad convergence test frequency */
(PID.TID 0000.0001)                       1
(PID.TID 0000.0001)     ;
(PID.TID 0000.0001) cg2dTargetResidual =   /* 2d con. grad target residual  */
(PID.TID 0000.0001)                 1.000000000000000E-07
(PID.TID 0000.0001)     ;
(PID.TID 0000.0001) cg2dTargetResWunit =   /* CG2d target residual [W units] */
(PID.TID 0000.0001)                -1.000000000000000E+00
(PID.TID 0000.0001)     ;
(PID.TID 0000.0001) cg2dPreCondFreq =   /* Freq. for updating cg2d preconditioner */
(PID.TID 0000.0001)                       1
(PID.TID 0000.0001)     ;
(PID.TID 0000.0001) //
(PID.TID 0000.0001) // Time stepping paramters ( PARM03 in namelist )
(PID.TID 0000.0001) //
(PID.TID 0000.0001) deltaTmom =   /* Momentum equation timestep ( s ) */
(PID.TID 0000.0001)                 3.600000000000000E+03
(PID.TID 0000.0001)     ;
(PID.TID 0000.0001) deltaTfreesurf =   /* FreeSurface equation timestep ( s ) */
(PID.TID 0000.0001)                 3.600000000000000E+03
(PID.TID 0000.0001)     ;
(PID.TID 0000.0001) dTtracerLev =   /* Tracer equation timestep ( s ) */
(PID.TID 0000.0001)    35 @  3.600000000000000E+03              /* K =  1: 35 */
(PID.TID 0000.0001)     ;
(PID.TID 0000.0001) deltaTClock  =   /* Model clock timestep ( s ) */
(PID.TID 0000.0001)                 3.600000000000000E+03
(PID.TID 0000.0001)     ;
(PID.TID 0000.0001) cAdjFreq =   /* Convective adjustment interval ( s ) */
(PID.TID 0000.0001)                 3.600000000000000E+03
(PID.TID 0000.0001)     ;
(PID.TID 0000.0001) momForcingOutAB = /* =1: take Momentum Forcing out of Adams-Bash. stepping */
(PID.TID 0000.0001)                       0
(PID.TID 0000.0001)     ;
(PID.TID 0000.0001) tracForcingOutAB = /* =1: take T,S,pTr Forcing out of Adams-Bash. stepping */
(PID.TID 0000.0001)                       0
(PID.TID 0000.0001)     ;
(PID.TID 0000.0001) momDissip_In_AB = /* put Dissipation Tendency in Adams-Bash. stepping */
(PID.TID 0000.0001)                   T
(PID.TID 0000.0001)     ;
(PID.TID 0000.0001) doAB_onGtGs = /* apply AB on Tendencies (rather than on T,S)*/
(PID.TID 0000.0001)                   T
(PID.TID 0000.0001)     ;
(PID.TID 0000.0001) abEps =   /* Adams-Bashforth-2 stabilizing weight */
(PID.TID 0000.0001)                 1.000000000000000E-01
(PID.TID 0000.0001)     ;
(PID.TID 0000.0001) pickupStrictlyMatch= /* stop if pickup do not strictly match */
(PID.TID 0000.0001)                   T
(PID.TID 0000.0001)     ;
(PID.TID 0000.0001) nIter0 =   /* Run starting timestep number  */
(PID.TID 0000.0001)                       0
(PID.TID 0000.0001)     ;
(PID.TID 0000.0001) nTimeSteps =   /* Number of timesteps */
(PID.TID 0000.0001)                       4
(PID.TID 0000.0001)     ;
(PID.TID 0000.0001) baseTime =   /* Model base time ( s ). */
(PID.TID 0000.0001)                 0.000000000000000E+00
(PID.TID 0000.0001)     ;
(PID.TID 0000.0001) startTime =   /* Run start time ( s ). */
(PID.TID 0000.0001)                 0.000000000000000E+00
(PID.TID 0000.0001)     ;
(PID.TID 0000.0001) endTime =   /* Integration ending time ( s ). */
(PID.TID 0000.0001)                 1.440000000000000E+04
(PID.TID 0000.0001)     ;
(PID.TID 0000.0001) pChkPtFreq =   /* Permanent restart/checkpoint file interval ( s ). */
(PID.TID 0000.0001)                 3.110400000000000E+07
(PID.TID 0000.0001)     ;
(PID.TID 0000.0001) chkPtFreq =   /* Rolling restart/checkpoint file interval ( s ). */
(PID.TID 0000.0001)                 3.110400000000000E+07
(PID.TID 0000.0001)     ;
(PID.TID 0000.0001) pickup_write_mdsio =   /* Model IO flag. */
(PID.TID 0000.0001)                   T
(PID.TID 0000.0001)     ;
(PID.TID 0000.0001) pickup_read_mdsio =   /* Model IO flag. */
(PID.TID 0000.0001)                   T
(PID.TID 0000.0001)     ;
(PID.TID 0000.0001) pickup_write_mnc =   /* Model IO flag. */
(PID.TID 0000.0001)                   F
(PID.TID 0000.0001)     ;
(PID.TID 0000.0001) pickup_read_mnc =   /* Model IO flag. */
(PID.TID 0000.0001)                   F
(PID.TID 0000.0001)     ;
(PID.TID 0000.0001) pickup_write_immed =   /* Model IO flag. */
(PID.TID 0000.0001)                   F
(PID.TID 0000.0001)     ;
(PID.TID 0000.0001) writePickupAtEnd =   /* Model IO flag. */
(PID.TID 0000.0001)                   T
(PID.TID 0000.0001)     ;
(PID.TID 0000.0001) dumpFreq =   /* Model state write out interval ( s ). */
(PID.TID 0000.0001)                 3.110400000000000E+07
(PID.TID 0000.0001)     ;
(PID.TID 0000.0001) dumpInitAndLast= /* write out Initial & Last iter. model state */
(PID.TID 0000.0001)                   T
(PID.TID 0000.0001)     ;
(PID.TID 0000.0001) snapshot_mdsio =   /* Model IO flag. */
(PID.TID 0000.0001)                   F
(PID.TID 0000.0001)     ;
(PID.TID 0000.0001) snapshot_mnc =   /* Model IO flag. */
(PID.TID 0000.0001)                   T
(PID.TID 0000.0001)     ;
(PID.TID 0000.0001) monitorFreq =   /* Monitor output interval ( s ). */
(PID.TID 0000.0001)                 1.000000000000000E+00
(PID.TID 0000.0001)     ;
(PID.TID 0000.0001) monitorSelect = /* select group of variables to monitor */
(PID.TID 0000.0001)                       3
(PID.TID 0000.0001)     ;
(PID.TID 0000.0001) monitor_stdio =   /* Model IO flag. */
(PID.TID 0000.0001)                   T
(PID.TID 0000.0001)     ;
(PID.TID 0000.0001) monitor_mnc =   /* Model IO flag. */
(PID.TID 0000.0001)                   F
(PID.TID 0000.0001)     ;
(PID.TID 0000.0001) externForcingPeriod =   /* forcing period (s) */
(PID.TID 0000.0001)                 2.592000000000000E+06
(PID.TID 0000.0001)     ;
(PID.TID 0000.0001) externForcingCycle =   /* period of the cyle (s). */
(PID.TID 0000.0001)                 3.110400000000000E+07
(PID.TID 0000.0001)     ;
(PID.TID 0000.0001) tauThetaClimRelax =   /* relaxation time scale (s) */
(PID.TID 0000.0001)                 2.592000000000000E+05
(PID.TID 0000.0001)     ;
(PID.TID 0000.0001) tauSaltClimRelax =   /* relaxation time scale (s) */
(PID.TID 0000.0001)                 0.000000000000000E+00
(PID.TID 0000.0001)     ;
(PID.TID 0000.0001) latBandClimRelax =   /* max. Lat. where relaxation */
(PID.TID 0000.0001)                 1.800000000000000E+02
(PID.TID 0000.0001)     ;
(PID.TID 0000.0001) //
(PID.TID 0000.0001) // Gridding paramters ( PARM04 in namelist )
(PID.TID 0000.0001) //
(PID.TID 0000.0001) usingCartesianGrid = /* Cartesian coordinates flag ( True/False ) */
(PID.TID 0000.0001)                   F
(PID.TID 0000.0001)     ;
(PID.TID 0000.0001) usingCylindricalGrid = /* Cylindrical coordinates flag ( True/False ) */
(PID.TID 0000.0001)                   F
(PID.TID 0000.0001)     ;
(PID.TID 0000.0001) usingSphericalPolarGrid = /* Spherical coordinates flag ( True/False ) */
(PID.TID 0000.0001)                   T
(PID.TID 0000.0001)     ;
(PID.TID 0000.0001) usingCurvilinearGrid = /* Curvilinear coordinates flag ( True/False ) */
(PID.TID 0000.0001)                   F
(PID.TID 0000.0001)     ;
(PID.TID 0000.0001) Ro_SeaLevel = /* r(1) ( units of r ==  m ) */
(PID.TID 0000.0001)                 0.000000000000000E+00
(PID.TID 0000.0001)     ;
(PID.TID 0000.0001) rkSign =   /* index orientation relative to vertical coordinate */
(PID.TID 0000.0001)                -1.000000000000000E+00
(PID.TID 0000.0001)     ;
(PID.TID 0000.0001) gravitySign = /* gravity orientation relative to vertical coordinate */
(PID.TID 0000.0001)                -1.000000000000000E+00
(PID.TID 0000.0001)     ;
(PID.TID 0000.0001) mass2rUnit = /* convert mass per unit area [kg/m2] to r-units [m] */
(PID.TID 0000.0001)                 1.000200040008002E-03
(PID.TID 0000.0001)     ;
(PID.TID 0000.0001) rUnit2mass = /* convert r-units [m] to mass per unit area [kg/m2] */
(PID.TID 0000.0001)                 9.998000000000000E+02
(PID.TID 0000.0001)     ;
(PID.TID 0000.0001) drC =   /* C spacing ( units of r ) */
(PID.TID 0000.0001)                 5.000000000000000E+00,      /* K =  1 */
(PID.TID 0000.0001)    13 @  1.000000000000000E+01,             /* K =  2: 14 */
(PID.TID 0000.0001)                 1.250000000000000E+01,      /* K = 15 */
(PID.TID 0000.0001)     4 @  1.500000000000000E+01,             /* K = 16: 19 */
(PID.TID 0000.0001)                 1.750000000000000E+01,      /* K = 20 */
(PID.TID 0000.0001)     3 @  2.000000000000000E+01,             /* K = 21: 23 */
(PID.TID 0000.0001)                 3.500000000000000E+01,      /* K = 24 */
(PID.TID 0000.0001)                 5.000000000000000E+01,      /* K = 25 */
(PID.TID 0000.0001)                 7.500000000000000E+01,      /* K = 26 */
(PID.TID 0000.0001)                 1.250000000000000E+02,      /* K = 27 */
(PID.TID 0000.0001)                 1.500000000000000E+02,      /* K = 28 */
(PID.TID 0000.0001)                 1.750000000000000E+02,      /* K = 29 */
(PID.TID 0000.0001)                 2.500000000000000E+02,      /* K = 30 */
(PID.TID 0000.0001)                 3.500000000000000E+02,      /* K = 31 */
(PID.TID 0000.0001)     2 @  4.000000000000000E+02,             /* K = 32: 33 */
(PID.TID 0000.0001)                 4.500000000000000E+02,      /* K = 34 */
(PID.TID 0000.0001)                 5.000000000000000E+02       /* K = 35 */
(PID.TID 0000.0001)     ;
(PID.TID 0000.0001) drF =   /* W spacing ( units of r ) */
(PID.TID 0000.0001)    14 @  1.000000000000000E+01,             /* K =  1: 14 */
(PID.TID 0000.0001)     5 @  1.500000000000000E+01,             /* K = 15: 19 */
(PID.TID 0000.0001)     4 @  2.000000000000000E+01,             /* K = 20: 23 */
(PID.TID 0000.0001)     2 @  5.000000000000000E+01,             /* K = 24: 25 */
(PID.TID 0000.0001)                 1.000000000000000E+02,      /* K = 26 */
(PID.TID 0000.0001)     2 @  1.500000000000000E+02,             /* K = 27: 28 */
(PID.TID 0000.0001)                 2.000000000000000E+02,      /* K = 29 */
(PID.TID 0000.0001)                 3.000000000000000E+02,      /* K = 30 */
(PID.TID 0000.0001)     3 @  4.000000000000000E+02,             /* K = 31: 33 */
(PID.TID 0000.0001)     2 @  5.000000000000000E+02              /* K = 34: 35 */
(PID.TID 0000.0001)     ;
(PID.TID 0000.0001) delX =   /* U spacing ( m - cartesian, degrees - spherical ) */
(PID.TID 0000.0001)                 1.000000000000000E+00       /* I =  1 */
(PID.TID 0000.0001)     ;
(PID.TID 0000.0001) delY =   /* V spacing ( m - cartesian, degrees - spherical ) */
(PID.TID 0000.0001)                 1.000000000000000E+00       /* J =  1 */
(PID.TID 0000.0001)     ;
(PID.TID 0000.0001) phiMin =    /* South edge (ignored - cartesian, degrees - spherical ) */
(PID.TID 0000.0001)                -1.800000000000000E+01
(PID.TID 0000.0001)     ;
(PID.TID 0000.0001) thetaMin =    /* West edge ( ignored - cartesian, degrees - spherical ) */
(PID.TID 0000.0001)                 3.350000000000000E+02
(PID.TID 0000.0001)     ;
(PID.TID 0000.0001) rSphere =  /* Radius ( ignored - cartesian, m - spherical ) */
(PID.TID 0000.0001)                 6.370000000000000E+06
(PID.TID 0000.0001)     ;
(PID.TID 0000.0001) deepAtmosphere = /* Deep/Shallow Atmosphere flag (True/False) */
(PID.TID 0000.0001)                   F
(PID.TID 0000.0001)     ;
(PID.TID 0000.0001) xcoord =   /* P-point X coord ( m - cartesian, degrees - spherical ) */
(PID.TID 0000.0001)                 3.355000000000000E+02       /* I =  1 */
(PID.TID 0000.0001)     ;
(PID.TID 0000.0001) ycoord =   /* P-point Y coord ( m - cartesian, degrees - spherical ) */
(PID.TID 0000.0001)                -1.750000000000000E+01       /* J =  1 */
(PID.TID 0000.0001)     ;
(PID.TID 0000.0001) rcoord =   /* P-point R coordinate (  units of r ) */
(PID.TID 0000.0001)                -5.000000000000000E+00,      /* K =  1 */
(PID.TID 0000.0001)                -1.500000000000000E+01,      /* K =  2 */
(PID.TID 0000.0001)                -2.500000000000000E+01,      /* K =  3 */
(PID.TID 0000.0001)                -3.500000000000000E+01,      /* K =  4 */
(PID.TID 0000.0001)                -4.500000000000000E+01,      /* K =  5 */
(PID.TID 0000.0001)                -5.500000000000000E+01,      /* K =  6 */
(PID.TID 0000.0001)                -6.500000000000000E+01,      /* K =  7 */
(PID.TID 0000.0001)                -7.500000000000000E+01,      /* K =  8 */
(PID.TID 0000.0001)                -8.500000000000000E+01,      /* K =  9 */
(PID.TID 0000.0001)                -9.500000000000000E+01,      /* K = 10 */
(PID.TID 0000.0001)                -1.050000000000000E+02,      /* K = 11 */
(PID.TID 0000.0001)                -1.150000000000000E+02,      /* K = 12 */
(PID.TID 0000.0001)                -1.250000000000000E+02,      /* K = 13 */
(PID.TID 0000.0001)                -1.350000000000000E+02,      /* K = 14 */
(PID.TID 0000.0001)                -1.475000000000000E+02,      /* K = 15 */
(PID.TID 0000.0001)                -1.625000000000000E+02,      /* K = 16 */
(PID.TID 0000.0001)                -1.775000000000000E+02,      /* K = 17 */
(PID.TID 0000.0001)                -1.925000000000000E+02,      /* K = 18 */
(PID.TID 0000.0001)                -2.075000000000000E+02,      /* K = 19 */
(PID.TID 0000.0001)                -2.250000000000000E+02,      /* K = 20 */
(PID.TID 0000.0001)                -2.450000000000000E+02,      /* K = 21 */
(PID.TID 0000.0001)                -2.650000000000000E+02,      /* K = 22 */
(PID.TID 0000.0001)                -2.850000000000000E+02,      /* K = 23 */
(PID.TID 0000.0001)                -3.200000000000000E+02,      /* K = 24 */
(PID.TID 0000.0001)                -3.700000000000000E+02,      /* K = 25 */
(PID.TID 0000.0001)                -4.450000000000000E+02,      /* K = 26 */
(PID.TID 0000.0001)                -5.700000000000000E+02,      /* K = 27 */
(PID.TID 0000.0001)                -7.200000000000000E+02,      /* K = 28 */
(PID.TID 0000.0001)                -8.950000000000000E+02,      /* K = 29 */
(PID.TID 0000.0001)                -1.145000000000000E+03,      /* K = 30 */
(PID.TID 0000.0001)                -1.495000000000000E+03,      /* K = 31 */
(PID.TID 0000.0001)                -1.895000000000000E+03,      /* K = 32 */
(PID.TID 0000.0001)                -2.295000000000000E+03,      /* K = 33 */
(PID.TID 0000.0001)                -2.745000000000000E+03,      /* K = 34 */
(PID.TID 0000.0001)                -3.245000000000000E+03       /* K = 35 */
(PID.TID 0000.0001)     ;
(PID.TID 0000.0001) rF =   /* W-Interf. R coordinate (  units of r ) */
(PID.TID 0000.0001)                 0.000000000000000E+00,      /* K =  1 */
(PID.TID 0000.0001)                -1.000000000000000E+01,      /* K =  2 */
(PID.TID 0000.0001)                -2.000000000000000E+01,      /* K =  3 */
(PID.TID 0000.0001)                -3.000000000000000E+01,      /* K =  4 */
(PID.TID 0000.0001)                -4.000000000000000E+01,      /* K =  5 */
(PID.TID 0000.0001)                -5.000000000000000E+01,      /* K =  6 */
(PID.TID 0000.0001)                -6.000000000000000E+01,      /* K =  7 */
(PID.TID 0000.0001)                -7.000000000000000E+01,      /* K =  8 */
(PID.TID 0000.0001)                -8.000000000000000E+01,      /* K =  9 */
(PID.TID 0000.0001)                -9.000000000000000E+01,      /* K = 10 */
(PID.TID 0000.0001)                -1.000000000000000E+02,      /* K = 11 */
(PID.TID 0000.0001)                -1.100000000000000E+02,      /* K = 12 */
(PID.TID 0000.0001)                -1.200000000000000E+02,      /* K = 13 */
(PID.TID 0000.0001)                -1.300000000000000E+02,      /* K = 14 */
(PID.TID 0000.0001)                -1.400000000000000E+02,      /* K = 15 */
(PID.TID 0000.0001)                -1.550000000000000E+02,      /* K = 16 */
(PID.TID 0000.0001)                -1.700000000000000E+02,      /* K = 17 */
(PID.TID 0000.0001)                -1.850000000000000E+02,      /* K = 18 */
(PID.TID 0000.0001)                -2.000000000000000E+02,      /* K = 19 */
(PID.TID 0000.0001)                -2.150000000000000E+02,      /* K = 20 */
(PID.TID 0000.0001)                -2.350000000000000E+02,      /* K = 21 */
(PID.TID 0000.0001)                -2.550000000000000E+02,      /* K = 22 */
(PID.TID 0000.0001)                -2.750000000000000E+02,      /* K = 23 */
(PID.TID 0000.0001)                -2.950000000000000E+02,      /* K = 24 */
(PID.TID 0000.0001)                -3.450000000000000E+02,      /* K = 25 */
(PID.TID 0000.0001)                -3.950000000000000E+02,      /* K = 26 */
(PID.TID 0000.0001)                -4.950000000000000E+02,      /* K = 27 */
(PID.TID 0000.0001)                -6.450000000000000E+02,      /* K = 28 */
(PID.TID 0000.0001)                -7.950000000000000E+02,      /* K = 29 */
(PID.TID 0000.0001)                -9.950000000000000E+02,      /* K = 30 */
(PID.TID 0000.0001)                -1.295000000000000E+03,      /* K = 31 */
(PID.TID 0000.0001)                -1.695000000000000E+03,      /* K = 32 */
(PID.TID 0000.0001)                -2.095000000000000E+03,      /* K = 33 */
(PID.TID 0000.0001)                -2.495000000000000E+03,      /* K = 34 */
(PID.TID 0000.0001)                -2.995000000000000E+03,      /* K = 35 */
(PID.TID 0000.0001)                -3.495000000000000E+03       /* K = 36 */
(PID.TID 0000.0001)     ;
(PID.TID 0000.0001) deepFacC = /* deep-model grid factor @ cell-Center (-) */
(PID.TID 0000.0001)    35 @  1.000000000000000E+00              /* K =  1: 35 */
(PID.TID 0000.0001)     ;
(PID.TID 0000.0001) deepFacF = /* deep-model grid factor @ W-Interface (-) */
(PID.TID 0000.0001)    36 @  1.000000000000000E+00              /* K =  1: 36 */
(PID.TID 0000.0001)     ;
(PID.TID 0000.0001) rVel2wUnit = /* convert units: rVel -> wSpeed (=1 if z-coord)*/
(PID.TID 0000.0001)    36 @  1.000000000000000E+00              /* K =  1: 36 */
(PID.TID 0000.0001)     ;
(PID.TID 0000.0001) wUnit2rVel = /* convert units: wSpeed -> rVel (=1 if z-coord)*/
(PID.TID 0000.0001)    36 @  1.000000000000000E+00              /* K =  1: 36 */
(PID.TID 0000.0001)     ;
(PID.TID 0000.0001) dBdrRef = /* Vertical gradient of reference boyancy [(m/s/r)^2)] */
(PID.TID 0000.0001)                 0.000000000000000E+00,      /* K =  1 */
(PID.TID 0000.0001)                 1.232578190459821E-04,      /* K =  2 */
(PID.TID 0000.0001)                 3.063957957303617E-05,      /* K =  3 */
(PID.TID 0000.0001)                 1.521320422054373E-04,      /* K =  4 */
(PID.TID 0000.0001)                 3.021271930223580E-05,      /* K =  5 */
(PID.TID 0000.0001)                 1.499903428890670E-04,      /* K =  6 */
(PID.TID 0000.0001)                 1.186737265074332E-04,      /* K =  7 */
(PID.TID 0000.0001)                 1.466841384627423E-04,      /* K =  8 */
(PID.TID 0000.0001)                 8.712618931102987E-05,      /* K =  9 */
(PID.TID 0000.0001)                 1.151380441308261E-04,      /* K = 10 */
(PID.TID 0000.0001)                 5.712979717883684E-05,      /* K = 11 */
(PID.TID 0000.0001)                 8.515049872565506E-05,      /* K = 12 */
(PID.TID 0000.0001)                 8.448721842774896E-05,      /* K = 13 */
(PID.TID 0000.0001)                 1.116043428725511E-04,      /* K = 14 */
(PID.TID 0000.0001)                 1.102373809396796E-04,      /* K = 15 */
(PID.TID 0000.0001)                 1.798828639202717E-04,      /* K = 16 */
(PID.TID 0000.0001)                 1.918102676980872E-04,      /* K = 17 */
(PID.TID 0000.0001)                 1.853506120896664E-04,      /* K = 18 */
(PID.TID 0000.0001)                 1.787791674911888E-04,      /* K = 19 */
(PID.TID 0000.0001)                 9.455522998141848E-05,      /* K = 20 */
(PID.TID 0000.0001)                 1.259231836379978E-04,      /* K = 21 */
(PID.TID 0000.0001)                 9.923620256554768E-05,      /* K = 22 */
(PID.TID 0000.0001)                 8.531935398693722E-05,      /* K = 23 */
(PID.TID 0000.0001)                 4.137475825384700E-05,      /* K = 24 */
(PID.TID 0000.0001)                 5.930109718499171E-05,      /* K = 25 */
(PID.TID 0000.0001)                 3.689739454308316E-05,      /* K = 26 */
(PID.TID 0000.0001)                 3.215311288275425E-05,      /* K = 27 */
(PID.TID 0000.0001)                 2.340106578013931E-05,      /* K = 28 */
(PID.TID 0000.0001)                 8.957465806881803E-06,      /* K = 29 */
(PID.TID 0000.0001)                 2.029141226789735E-06,      /* K = 30 */
(PID.TID 0000.0001)                 0.000000000000000E+00,      /* K = 31 */
(PID.TID 0000.0001)                 1.052869956707729E-06,      /* K = 32 */
(PID.TID 0000.0001)                 1.465965950004292E-06,      /* K = 33 */
(PID.TID 0000.0001)                 6.817081889333135E-07,      /* K = 34 */
(PID.TID 0000.0001)                 6.544800624285541E-07       /* K = 35 */
(PID.TID 0000.0001)     ;
(PID.TID 0000.0001) rotateGrid = /* use rotated grid ( True/False ) */
(PID.TID 0000.0001)                   F
(PID.TID 0000.0001)     ;
(PID.TID 0000.0001) phiEuler = /* Euler angle, rotation about original z-coordinate [rad] */
(PID.TID 0000.0001)                 0.000000000000000E+00
(PID.TID 0000.0001)     ;
(PID.TID 0000.0001) thetaEuler = /* Euler angle, rotation about new x-coordinate [rad] */
(PID.TID 0000.0001)                 0.000000000000000E+00
(PID.TID 0000.0001)     ;
(PID.TID 0000.0001) psiEuler = /* Euler angle, rotation about new z-coordinate [rad] */
(PID.TID 0000.0001)                 0.000000000000000E+00
(PID.TID 0000.0001)     ;
(PID.TID 0000.0001) dxF =  /* dxF(:,1,:,1) ( units: m ) */
(PID.TID 0000.0001)                 1.060318408771987E+05       /* I =  1 */
(PID.TID 0000.0001)     ;
(PID.TID 0000.0001) dxF =  /* dxF(1,:,1,:) ( units: m ) */
(PID.TID 0000.0001)                 1.060318408771987E+05       /* J =  1 */
(PID.TID 0000.0001)     ;
(PID.TID 0000.0001) dyF =  /* dyF(:,1,:,1) ( units: m ) */
(PID.TID 0000.0001)                 1.111774733520388E+05       /* I =  1 */
(PID.TID 0000.0001)     ;
(PID.TID 0000.0001) dyF =  /* dyF(1,:,1,:) ( units: m ) */
(PID.TID 0000.0001)                 1.111774733520388E+05       /* J =  1 */
(PID.TID 0000.0001)     ;
(PID.TID 0000.0001) dxG =  /* dxG(:,1,:,1) ( units: m ) */
(PID.TID 0000.0001)                 1.057360604966873E+05       /* I =  1 */
(PID.TID 0000.0001)     ;
(PID.TID 0000.0001) dxG =  /* dxG(1,:,1,:) ( units: m ) */
(PID.TID 0000.0001)                 1.057360604966873E+05       /* J =  1 */
(PID.TID 0000.0001)     ;
(PID.TID 0000.0001) dyG =  /* dyG(:,1,:,1) ( units: m ) */
(PID.TID 0000.0001)                 1.111774733520388E+05       /* I =  1 */
(PID.TID 0000.0001)     ;
(PID.TID 0000.0001) dyG =  /* dyG(1,:,1,:) ( units: m ) */
(PID.TID 0000.0001)                 1.111774733520388E+05       /* J =  1 */
(PID.TID 0000.0001)     ;
(PID.TID 0000.0001) dxC =  /* dxC(:,1,:,1) ( units: m ) */
(PID.TID 0000.0001)                 1.060318408771987E+05       /* I =  1 */
(PID.TID 0000.0001)     ;
(PID.TID 0000.0001) dxC =  /* dxC(1,:,1,:) ( units: m ) */
(PID.TID 0000.0001)                 1.060318408771987E+05       /* J =  1 */
(PID.TID 0000.0001)     ;
(PID.TID 0000.0001) dyC =  /* dyC(:,1,:,1) ( units: m ) */
(PID.TID 0000.0001)                 1.111774733520388E+05       /* I =  1 */
(PID.TID 0000.0001)     ;
(PID.TID 0000.0001) dyC =  /* dyC(1,:,1,:) ( units: m ) */
(PID.TID 0000.0001)                 1.111774733520388E+05       /* J =  1 */
(PID.TID 0000.0001)     ;
(PID.TID 0000.0001) dxV =  /* dxV(:,1,:,1) ( units: m ) */
(PID.TID 0000.0001)                 1.057360604966873E+05       /* I =  1 */
(PID.TID 0000.0001)     ;
(PID.TID 0000.0001) dxV =  /* dxV(1,:,1,:) ( units: m ) */
(PID.TID 0000.0001)                 1.057360604966873E+05       /* J =  1 */
(PID.TID 0000.0001)     ;
(PID.TID 0000.0001) dyU =  /* dyU(:,1,:,1) ( units: m ) */
(PID.TID 0000.0001)                 1.111774733520388E+05       /* I =  1 */
(PID.TID 0000.0001)     ;
(PID.TID 0000.0001) dyU =  /* dyU(1,:,1,:) ( units: m ) */
(PID.TID 0000.0001)                 1.111774733520388E+05       /* J =  1 */
(PID.TID 0000.0001)     ;
(PID.TID 0000.0001) rA  =  /* rA (:,1,:,1) ( units: m^2 ) */
(PID.TID 0000.0001)                 1.178820254176956E+10       /* I =  1 */
(PID.TID 0000.0001)     ;
(PID.TID 0000.0001) rA  =  /* rA (1,:,1,:) ( units: m^2 ) */
(PID.TID 0000.0001)                 1.178820254176956E+10       /* J =  1 */
(PID.TID 0000.0001)     ;
(PID.TID 0000.0001) rAw =  /* rAw(:,1,:,1) ( units: m^2 ) */
(PID.TID 0000.0001)                 1.178820254176956E+10       /* I =  1 */
(PID.TID 0000.0001)     ;
(PID.TID 0000.0001) rAw =  /* rAw(1,:,1,:) ( units: m^2 ) */
(PID.TID 0000.0001)                 1.178820254176956E+10       /* J =  1 */
(PID.TID 0000.0001)     ;
(PID.TID 0000.0001) rAs =  /* rAs(:,1,:,1) ( units: m^2 ) */
(PID.TID 0000.0001)                 1.175531884377377E+10       /* I =  1 */
(PID.TID 0000.0001)     ;
(PID.TID 0000.0001) rAs =  /* rAs(1,:,1,:) ( units: m^2 ) */
(PID.TID 0000.0001)                 1.175531884377377E+10       /* J =  1 */
(PID.TID 0000.0001)     ;
(PID.TID 0000.0001) globalArea = /* Integrated horizontal Area (m^2) */
(PID.TID 0000.0001)                 1.178820254176956E+10
(PID.TID 0000.0001)     ;
(PID.TID 0000.0001) // =======================================================
(PID.TID 0000.0001) // End of Model config. summary
(PID.TID 0000.0001) // =======================================================
(PID.TID 0000.0001) 
(PID.TID 0000.0001) == Packages configuration : Check & print summary ==
(PID.TID 0000.0001) 
(PID.TID 0000.0001) GAD_CHECK: #define ALLOW_GENERIC_ADVDIFF
(PID.TID 0000.0001) GCHEM_CHECK: #define ALLOW_GCHEM
(PID.TID 0000.0001) DARWIN_CHECK: #define ALLOW_DARWIN
(PID.TID 0000.0001) DARWIN_CHECK: iPtr darwin   PTRACERS_names
(PID.TID 0000.0001) DARWIN_CHECK:    1 PO4      PO4
(PID.TID 0000.0001) DARWIN_CHECK:    2 NO3      NO3
(PID.TID 0000.0001) DARWIN_CHECK:    3 FeT      FeT
(PID.TID 0000.0001) DARWIN_CHECK:    4 Si       SiO2
(PID.TID 0000.0001) DARWIN_CHECK:    5 DOP      DOP
(PID.TID 0000.0001) DARWIN_CHECK:    6 DON      DON
(PID.TID 0000.0001) DARWIN_CHECK:    7 DOFe     DOFe
(PID.TID 0000.0001) DARWIN_CHECK:    8 ZooP (1) ZOO1P
(PID.TID 0000.0001) DARWIN_CHECK:    9 ZooN (1) ZOO1N
(PID.TID 0000.0001) DARWIN_CHECK:   10 ZooFe(1) ZOO1Fe
(PID.TID 0000.0001) DARWIN_CHECK:   11 ZooSi(1) ZOO1Si
(PID.TID 0000.0001) DARWIN_CHECK:   12 ZooP (2) ZOO2P
(PID.TID 0000.0001) DARWIN_CHECK:   13 ZooN (2) ZOO2N
(PID.TID 0000.0001) DARWIN_CHECK:   14 ZooFe(2) ZOO2Fe
(PID.TID 0000.0001) DARWIN_CHECK:   15 ZooSi(2) ZOO2Si
(PID.TID 0000.0001) DARWIN_CHECK:   16 POP      POP
(PID.TID 0000.0001) DARWIN_CHECK:   17 PON      PON
(PID.TID 0000.0001) DARWIN_CHECK:   18 POFe     POFe
(PID.TID 0000.0001) DARWIN_CHECK:   19 POSi     POSi
(PID.TID 0000.0001) DARWIN_CHECK:   20 NH4      NH4
(PID.TID 0000.0001) DARWIN_CHECK:   21 NO2      NO2
(PID.TID 0000.0001) DARWIN_CHECK:   22 Phy(1)   Phy1
(PID.TID 0000.0001) DARWIN_CHECK:   99 Phy(  78)Phy78
(PID.TID 0000.0001) // =======================================================
(PID.TID 0000.0001) // CONFIG_CHECK : Normal End
(PID.TID 0000.0001) // =======================================================
(PID.TID 0000.0001) 
(PID.TID 0000.0001)  MDS_READ_FIELD: opening global file: ../input/input/loc1_temp_janprof.bin
(PID.TID 0000.0001) // =======================================================
(PID.TID 0000.0001) // Field Initial Temperature at iteration          1
(PID.TID 0000.0001) // CMIN =          2.634580039978027E+01
(PID.TID 0000.0001) // CMAX =          2.634580039978027E+01
(PID.TID 0000.0001) // CINT =          0.000000000000000E+00
(PID.TID 0000.0001) // SYMBOLS (CMIN->CMAX): -abcdefghijklmnopqrstuvwxyz+
(PID.TID 0000.0001) //                  0.0: .
(PID.TID 0000.0001) // RANGE I (Lo:Hi:Step):(   1:   1:   1)
(PID.TID 0000.0001) // RANGE J (Lo:Hi:Step):(   1:   1:  -1)
(PID.TID 0000.0001) // RANGE K (Lo:Hi:Step):(   1:   1:   1)
(PID.TID 0000.0001) // =======================================================
(PID.TID 0000.0001) // =======================================================
(PID.TID 0000.0001) // END OF FIELD                                          =
(PID.TID 0000.0001) // =======================================================
(PID.TID 0000.0001) 
(PID.TID 0000.0001)  MDS_READ_FIELD: opening global file: ../input/input/salt_uniform.bin
(PID.TID 0000.0001) // =======================================================
(PID.TID 0000.0001) // Field Initial Salinity at iteration          1
(PID.TID 0000.0001) // CMIN =          3.500000000000000E+01
(PID.TID 0000.0001) // CMAX =          3.500000000000000E+01
(PID.TID 0000.0001) // CINT =          0.000000000000000E+00
(PID.TID 0000.0001) // SYMBOLS (CMIN->CMAX): -abcdefghijklmnopqrstuvwxyz+
(PID.TID 0000.0001) //                  0.0: .
(PID.TID 0000.0001) // RANGE I (Lo:Hi:Step):(   1:   1:   1)
(PID.TID 0000.0001) // RANGE J (Lo:Hi:Step):(   1:   1:  -1)
(PID.TID 0000.0001) // RANGE K (Lo:Hi:Step):(   1:   1:   1)
(PID.TID 0000.0001) // =======================================================
(PID.TID 0000.0001) // =======================================================
(PID.TID 0000.0001) // END OF FIELD                                          =
(PID.TID 0000.0001) // =======================================================
(PID.TID 0000.0001) 
(PID.TID 0000.0001) Start initial hydrostatic pressure computation
(PID.TID 0000.0001) Pressure is predetermined for buoyancyRelation OCEANIC
(PID.TID 0000.0001) 
(PID.TID 0000.0001)  MDS_READ_FIELD: opening global file: ../input/input/loc1_temp_monsurf.bin
(PID.TID 0000.0001)  MDS_READ_FIELD: opening global file: ../input/input/loc1_phos_janprof.bin
(PID.TID 0000.0001)  MDS_READ_FIELD: opening global file: ../input/input/loc1_nitr_janprof.bin
(PID.TID 0000.0001)  MDS_READ_FIELD: opening global file: ../input/input/fet_uniform.bin
(PID.TID 0000.0001)  MDS_READ_FIELD: opening global file: ../input/input/loc1_sil_janprof.bin
(PID.TID 0000.0001)  MDS_READ_FIELD: opening global file: ../input/input/loc1_DOP_run83_janprof.bin
(PID.TID 0000.0001)  MDS_READ_FIELD: opening global file: ../input/input/loc1_DON_run83_janprof.bin
(PID.TID 0000.0001)  MDS_READ_FIELD: opening global file: ../input/input/loc1_DOFe_run83_janprof.bin
(PID.TID 0000.0001)  MDS_READ_FIELD: opening global file: ../input/input/loc1_ZOOP_run83_janprof.bin
(PID.TID 0000.0001)  MDS_READ_FIELD: opening global file: ../input/input/loc1_ZOON_run83_janprof.bin
(PID.TID 0000.0001)  MDS_READ_FIELD: opening global file: ../input/input/loc1_ZOOFe_run83_janprof.bin
(PID.TID 0000.0001)  MDS_READ_FIELD: opening global file: ../input/input/loc1_ZOOSi_run83_janprof.bin
(PID.TID 0000.0001)  MDS_READ_FIELD: opening global file: ../input/input/loc1_ZOOP_run83_janprof.bin
(PID.TID 0000.0001)  MDS_READ_FIELD: opening global file: ../input/input/loc1_ZOON_run83_janprof.bin
(PID.TID 0000.0001)  MDS_READ_FIELD: opening global file: ../input/input/loc1_ZOOFe_run83_janprof.bin
(PID.TID 0000.0001)  MDS_READ_FIELD: opening global file: ../input/input/loc1_ZOOSi_run83_janprof.bin
(PID.TID 0000.0001)  MDS_READ_FIELD: opening global file: ../input/input/loc1_POP_run83_janprof.bin
(PID.TID 0000.0001)  MDS_READ_FIELD: opening global file: ../input/input/loc1_PON_run83_janprof.bin
(PID.TID 0000.0001)  MDS_READ_FIELD: opening global file: ../input/input/loc1_POFe_run83_janprof.bin
(PID.TID 0000.0001)  MDS_READ_FIELD: opening global file: ../input/input/loc1_POSi_run83_janprof.bin
(PID.TID 0000.0001)  MDS_READ_FIELD: opening global file: ../input/input/loc1_NH4_run83_janprof.bin
(PID.TID 0000.0001)  MDS_READ_FIELD: opening global file: ../input/input/loc1_NO2_run83_janprof.bin
(PID.TID 0000.0001)  MDS_READ_FIELD: opening global file: ../input/input/loc1_biomass_run83_janprof.bin
(PID.TID 0000.0001)  MDS_READ_FIELD: opening global file: ../input/input/loc1_biomass_run83_janprof.bin
(PID.TID 0000.0001)  MDS_READ_FIELD: opening global file: ../input/input/loc1_biomass_run83_janprof.bin
(PID.TID 0000.0001)  MDS_READ_FIELD: opening global file: ../input/input/loc1_biomass_run83_janprof.bin
(PID.TID 0000.0001)  MDS_READ_FIELD: opening global file: ../input/input/loc1_biomass_run83_janprof.bin
(PID.TID 0000.0001)  MDS_READ_FIELD: opening global file: ../input/input/loc1_biomass_run83_janprof.bin
(PID.TID 0000.0001)  MDS_READ_FIELD: opening global file: ../input/input/loc1_biomass_run83_janprof.bin
(PID.TID 0000.0001)  MDS_READ_FIELD: opening global file: ../input/input/loc1_biomass_run83_janprof.bin
(PID.TID 0000.0001)  MDS_READ_FIELD: opening global file: ../input/input/loc1_biomass_run83_janprof.bin
(PID.TID 0000.0001)  MDS_READ_FIELD: opening global file: ../input/input/loc1_biomass_run83_janprof.bin
(PID.TID 0000.0001)  MDS_READ_FIELD: opening global file: ../input/input/loc1_biomass_run83_janprof.bin
(PID.TID 0000.0001)  MDS_READ_FIELD: opening global file: ../input/input/loc1_biomass_run83_janprof.bin
(PID.TID 0000.0001)  MDS_READ_FIELD: opening global file: ../input/input/loc1_biomass_run83_janprof.bin
(PID.TID 0000.0001)  MDS_READ_FIELD: opening global file: ../input/input/loc1_biomass_run83_janprof.bin
(PID.TID 0000.0001)  MDS_READ_FIELD: opening global file: ../input/input/loc1_biomass_run83_janprof.bin
(PID.TID 0000.0001)  MDS_READ_FIELD: opening global file: ../input/input/loc1_biomass_run83_janprof.bin
(PID.TID 0000.0001)  MDS_READ_FIELD: opening global file: ../input/input/loc1_biomass_run83_janprof.bin
(PID.TID 0000.0001)  MDS_READ_FIELD: opening global file: ../input/input/loc1_biomass_run83_janprof.bin
(PID.TID 0000.0001)  MDS_READ_FIELD: opening global file: ../input/input/loc1_biomass_run83_janprof.bin
(PID.TID 0000.0001)  MDS_READ_FIELD: opening global file: ../input/input/loc1_biomass_run83_janprof.bin
(PID.TID 0000.0001)  MDS_READ_FIELD: opening global file: ../input/input/loc1_biomass_run83_janprof.bin
(PID.TID 0000.0001)  MDS_READ_FIELD: opening global file: ../input/input/loc1_biomass_run83_janprof.bin
(PID.TID 0000.0001)  MDS_READ_FIELD: opening global file: ../input/input/loc1_biomass_run83_janprof.bin
(PID.TID 0000.0001)  MDS_READ_FIELD: opening global file: ../input/input/loc1_biomass_run83_janprof.bin
(PID.TID 0000.0001)  MDS_READ_FIELD: opening global file: ../input/input/loc1_biomass_run83_janprof.bin
(PID.TID 0000.0001)  MDS_READ_FIELD: opening global file: ../input/input/loc1_biomass_run83_janprof.bin
(PID.TID 0000.0001)  MDS_READ_FIELD: opening global file: ../input/input/loc1_biomass_run83_janprof.bin
(PID.TID 0000.0001)  MDS_READ_FIELD: opening global file: ../input/input/loc1_biomass_run83_janprof.bin
(PID.TID 0000.0001)  MDS_READ_FIELD: opening global file: ../input/input/loc1_biomass_run83_janprof.bin
(PID.TID 0000.0001)  MDS_READ_FIELD: opening global file: ../input/input/loc1_biomass_run83_janprof.bin
(PID.TID 0000.0001)  MDS_READ_FIELD: opening global file: ../input/input/loc1_biomass_run83_janprof.bin
(PID.TID 0000.0001)  MDS_READ_FIELD: opening global file: ../input/input/loc1_biomass_run83_janprof.bin
(PID.TID 0000.0001)  MDS_READ_FIELD: opening global file: ../input/input/loc1_biomass_run83_janprof.bin
(PID.TID 0000.0001)  MDS_READ_FIELD: opening global file: ../input/input/loc1_biomass_run83_janprof.bin
(PID.TID 0000.0001)  MDS_READ_FIELD: opening global file: ../input/input/loc1_biomass_run83_janprof.bin
(PID.TID 0000.0001)  MDS_READ_FIELD: opening global file: ../input/input/loc1_biomass_run83_janprof.bin
(PID.TID 0000.0001)  MDS_READ_FIELD: opening global file: ../input/input/loc1_biomass_run83_janprof.bin
(PID.TID 0000.0001)  MDS_READ_FIELD: opening global file: ../input/input/loc1_biomass_run83_janprof.bin
(PID.TID 0000.0001)  MDS_READ_FIELD: opening global file: ../input/input/loc1_biomass_run83_janprof.bin
(PID.TID 0000.0001)  MDS_READ_FIELD: opening global file: ../input/input/loc1_biomass_run83_janprof.bin
(PID.TID 0000.0001)  MDS_READ_FIELD: opening global file: ../input/input/loc1_biomass_run83_janprof.bin
(PID.TID 0000.0001)  MDS_READ_FIELD: opening global file: ../input/input/loc1_biomass_run83_janprof.bin
(PID.TID 0000.0001)  MDS_READ_FIELD: opening global file: ../input/input/loc1_biomass_run83_janprof.bin
(PID.TID 0000.0001)  MDS_READ_FIELD: opening global file: ../input/input/loc1_biomass_run83_janprof.bin
(PID.TID 0000.0001)  MDS_READ_FIELD: opening global file: ../input/input/loc1_biomass_run83_janprof.bin
(PID.TID 0000.0001)  MDS_READ_FIELD: opening global file: ../input/input/loc1_biomass_run83_janprof.bin
(PID.TID 0000.0001)  MDS_READ_FIELD: opening global file: ../input/input/loc1_biomass_run83_janprof.bin
(PID.TID 0000.0001)  MDS_READ_FIELD: opening global file: ../input/input/loc1_biomass_run83_janprof.bin
(PID.TID 0000.0001)  MDS_READ_FIELD: opening global file: ../input/input/loc1_biomass_run83_janprof.bin
(PID.TID 0000.0001)  MDS_READ_FIELD: opening global file: ../input/input/loc1_biomass_run83_janprof.bin
(PID.TID 0000.0001)  MDS_READ_FIELD: opening global file: ../input/input/loc1_biomass_run83_janprof.bin
(PID.TID 0000.0001)  MDS_READ_FIELD: opening global file: ../input/input/loc1_biomass_run83_janprof.bin
(PID.TID 0000.0001)  MDS_READ_FIELD: opening global file: ../input/input/loc1_biomass_run83_janprof.bin
(PID.TID 0000.0001)  MDS_READ_FIELD: opening global file: ../input/input/loc1_biomass_run83_janprof.bin
(PID.TID 0000.0001)  MDS_READ_FIELD: opening global file: ../input/input/loc1_biomass_run83_janprof.bin
(PID.TID 0000.0001)  MDS_READ_FIELD: opening global file: ../input/input/loc1_biomass_run83_janprof.bin
(PID.TID 0000.0001)  MDS_READ_FIELD: opening global file: ../input/input/loc1_biomass_run83_janprof.bin
(PID.TID 0000.0001)  MDS_READ_FIELD: opening global file: ../input/input/loc1_biomass_run83_janprof.bin
(PID.TID 0000.0001)  MDS_READ_FIELD: opening global file: ../input/input/loc1_biomass_run83_janprof.bin
(PID.TID 0000.0001)  MDS_READ_FIELD: opening global file: ../input/input/loc1_biomass_run83_janprof.bin
(PID.TID 0000.0001)  MDS_READ_FIELD: opening global file: ../input/input/loc1_biomass_run83_janprof.bin
(PID.TID 0000.0001)  MDS_READ_FIELD: opening global file: ../input/input/loc1_biomass_run83_janprof.bin
(PID.TID 0000.0001)  MDS_READ_FIELD: opening global file: ../input/input/loc1_biomass_run83_janprof.bin
(PID.TID 0000.0001)  MDS_READ_FIELD: opening global file: ../input/input/loc1_biomass_run83_janprof.bin
(PID.TID 0000.0001)  MDS_READ_FIELD: opening global file: ../input/input/loc1_biomass_run83_janprof.bin
(PID.TID 0000.0001)  MDS_READ_FIELD: opening global file: ../input/input/loc1_biomass_run83_janprof.bin
(PID.TID 0000.0001)  MDS_READ_FIELD: opening global file: ../input/input/loc1_biomass_run83_janprof.bin
(PID.TID 0000.0001)  MDS_READ_FIELD: opening global file: ../input/input/loc1_biomass_run83_janprof.bin
(PID.TID 0000.0001)  MDS_READ_FIELD: opening global file: ../input/input/loc1_biomass_run83_janprof.bin
(PID.TID 0000.0001)  MDS_READ_FIELD: opening global file: ../input/input/loc1_biomass_run83_janprof.bin
(PID.TID 0000.0001)  MDS_READ_FIELD: opening global file: ../input/input/loc1_biomass_run83_janprof.bin
(PID.TID 0000.0001)  MDS_READ_FIELD: opening global file: ../input/input/loc1_biomass_run83_janprof.bin
(PID.TID 0000.0001)  MDS_READ_FIELD: opening global file: ../input/input/loc1_biomass_run83_janprof.bin
(PID.TID 0000.0001)  MDS_READ_FIELD: opening global file: ../input/input/loc1_biomass_run83_janprof.bin
(PID.TID 0000.0001)  MDS_READ_FIELD: opening global file: ../input/input/loc1_biomass_run83_janprof.bin
(PID.TID 0000.0001)  MDS_READ_FIELD: opening global file: ../input/input/loc1_biomass_run83_janprof.bin
(PID.TID 0000.0001)  MDS_READ_FIELD: opening global file: ../input/input/loc1_biomass_run83_janprof.bin
(PID.TID 0000.0001)  MDS_READ_FIELD: opening global file: ../input/input/loc1_biomass_run83_janprof.bin
(PID.TID 0000.0001) // =======================================================
(PID.TID 0000.0001) // Darwin init variables >>> START <<<
(PID.TID 0000.0001) // =======================================================
(PID.TID 0000.0001) QQ random port_rand            11231   0.4077530000000000
(PID.TID 0000.0001) generate Phyto: np =    1 FIXED - no DIAZO
(PID.TID 0000.0001) generate Phyto: np =    1 Topt       =   17.2985360000000
(PID.TID 0000.0001) generate Phyto: np =    1 growthdays =  0.400000000000000
(PID.TID 0000.0001) generate Phyto: np =    1 pcmax    =  2.893518518518519E-005
(PID.TID 0000.0001) generate Phyto: np =    1 mQyield    =  4.928925000000000E-005
(PID.TID 0000.0001) generate Phyto: np =    1 chl2cmax     =  0.574649225000000
(PID.TID 0000.0001) generate Phyto: np =    2 FIXED - no DIAZO
(PID.TID 0000.0001) generate Phyto: np =    2 Topt       =   25.8085200000000
(PID.TID 0000.0001) generate Phyto: np =    2 growthdays =  0.400000000000000
(PID.TID 0000.0001) generate Phyto: np =    2 pcmax    =  2.893518518518519E-005
(PID.TID 0000.0001) generate Phyto: np =    2 mQyield    =  4.082059000000000E-005
(PID.TID 0000.0001) generate Phyto: np =    2 chl2cmax     =  0.597526250000000
(PID.TID 0000.0001) generate Phyto: np =    3 FIXED - no DIAZO
(PID.TID 0000.0001) generate Phyto: np =    3 Topt       =  0.761904000000001
(PID.TID 0000.0001) generate Phyto: np =    3 growthdays =  0.700000000000000
(PID.TID 0000.0001) generate Phyto: np =    3 pcmax    =  1.653439153439154E-005
(PID.TID 0000.0001) generate Phyto: np =    3 mQyield    =  9.971282500000001E-005
(PID.TID 0000.0001) generate Phyto: np =    3 chl2cmax     =  0.416727050000000
(PID.TID 0000.0001) generate Phyto: np =    4 FIXED - no DIAZO
(PID.TID 0000.0001) generate Phyto: np =    4 Topt       =   27.1191440000000
(PID.TID 0000.0001) generate Phyto: np =    4 growthdays =  0.700000000000000
(PID.TID 0000.0001) generate Phyto: np =    4 pcmax    =  1.653439153439154E-005
(PID.TID 0000.0001) generate Phyto: np =    4 mQyield    =  1.337623000000000E-004
(PID.TID 0000.0001) generate Phyto: np =    4 chl2cmax     =  0.482681000000000
(PID.TID 0000.0001) generate Phyto: np =    5 FIXED - no DIAZO
(PID.TID 0000.0001) generate Phyto: np =    5 Topt       =   22.6316960000000
(PID.TID 0000.0001) generate Phyto: np =    5 growthdays =  0.400000000000000
(PID.TID 0000.0001) generate Phyto: np =    5 pcmax    =  2.893518518518519E-005
(PID.TID 0000.0001) generate Phyto: np =    5 mQyield    =  3.027986000000000E-005
(PID.TID 0000.0001) generate Phyto: np =    5 chl2cmax     =  0.718572125000000
(PID.TID 0000.0001) generate Phyto: np =    6 FIXED - no DIAZO
(PID.TID 0000.0001) generate Phyto: np =    6 Topt       =   1.43553600000000
(PID.TID 0000.0001) generate Phyto: np =    6 growthdays =  0.700000000000000
(PID.TID 0000.0001) generate Phyto: np =    6 pcmax    =  1.653439153439154E-005
(PID.TID 0000.0001) generate Phyto: np =    6 mQyield    =  8.068940000000000E-005
(PID.TID 0000.0001) generate Phyto: np =    6 chl2cmax     =  0.340453925000000
(PID.TID 0000.0001) generate Phyto: np =    7 FIXED - no DIAZO
(PID.TID 0000.0001) generate Phyto: np =    7 Topt       =   25.2178320000000
(PID.TID 0000.0001) generate Phyto: np =    7 growthdays =  0.700000000000000
(PID.TID 0000.0001) generate Phyto: np =    7 pcmax    =  1.653439153439154E-005
(PID.TID 0000.0001) generate Phyto: np =    7 mQyield    =  9.830215000000001E-005
(PID.TID 0000.0001) generate Phyto: np =    7 chl2cmax     =  0.470217275000000
(PID.TID 0000.0001) generate Phyto: np =    8 FIXED - no DIAZO
(PID.TID 0000.0001) generate Phyto: np =    8 Topt       =   29.7286080000000
(PID.TID 0000.0001) generate Phyto: np =    8 growthdays =  0.700000000000000
(PID.TID 0000.0001) generate Phyto: np =    8 pcmax    =  1.653439153439154E-005
(PID.TID 0000.0001) generate Phyto: np =    8 mQyield    =  6.949022500000001E-005
(PID.TID 0000.0001) generate Phyto: np =    8 chl2cmax     =  0.206315300000000
(PID.TID 0000.0001) generate Phyto: np =    9 FIXED - no DIAZO
(PID.TID 0000.0001) generate Phyto: np =    9 Topt       =   13.9620160000000
(PID.TID 0000.0001) generate Phyto: np =    9 growthdays =  0.700000000000000
(PID.TID 0000.0001) generate Phyto: np =    9 pcmax    =  1.653439153439154E-005
(PID.TID 0000.0001) generate Phyto: np =    9 mQyield    =  1.491222750000000E-004
(PID.TID 0000.0001) generate Phyto: np =    9 chl2cmax     =  0.482175200000000
(PID.TID 0000.0001) generate Phyto: np =   10 FIXED - no DIAZO
(PID.TID 0000.0001) generate Phyto: np =   10 Topt       =   23.8572400000000
(PID.TID 0000.0001) generate Phyto: np =   10 growthdays =  0.700000000000000
(PID.TID 0000.0001) generate Phyto: np =   10 pcmax    =  1.653439153439154E-005
(PID.TID 0000.0001) generate Phyto: np =   10 mQyield    =  1.376533000000000E-004
(PID.TID 0000.0001) generate Phyto: np =   10 chl2cmax     =  0.318246575000000
(PID.TID 0000.0001) generate Phyto: np =   11 FIXED - no DIAZO
(PID.TID 0000.0001) generate Phyto: np =   11 Topt       =   6.94750400000000
(PID.TID 0000.0001) generate Phyto: np =   11 growthdays =  0.400000000000000
(PID.TID 0000.0001) generate Phyto: np =   11 pcmax    =  2.893518518518519E-005
(PID.TID 0000.0001) generate Phyto: np =   11 mQyield    =  3.989295000000000E-005
(PID.TID 0000.0001) generate Phyto: np =   11 chl2cmax     =  0.695762525000000
(PID.TID 0000.0001) generate Phyto: np =   12 FIXED - no DIAZO
(PID.TID 0000.0001) generate Phyto: np =   12 Topt       =   20.7197840000000
(PID.TID 0000.0001) generate Phyto: np =   12 growthdays =  0.700000000000000
(PID.TID 0000.0001) generate Phyto: np =   12 pcmax    =  1.653439153439154E-005
(PID.TID 0000.0001) generate Phyto: np =   12 mQyield    =  1.257694750000000E-004
(PID.TID 0000.0001) generate Phyto: np =   12 chl2cmax     =  0.260456750000000
(PID.TID 0000.0001) generate Phyto: np =   13 FIXED - no DIAZO
(PID.TID 0000.0001) generate Phyto: np =   13 Topt       =   21.1176720000000
(PID.TID 0000.0001) generate Phyto: np =   13 growthdays =  0.400000000000000
(PID.TID 0000.0001) generate Phyto: np =   13 pcmax    =  2.893518518518519E-005
(PID.TID 0000.0001) generate Phyto: np =   13 mQyield    =  4.152362000000000E-005
(PID.TID 0000.0001) generate Phyto: np =   13 chl2cmax     =  0.636926000000000
(PID.TID 0000.0001) generate Phyto: np =   14 FIXED - no DIAZO
(PID.TID 0000.0001) generate Phyto: np =   14 Topt       =   1.89049600000000
(PID.TID 0000.0001) generate Phyto: np =   14 growthdays =  0.400000000000000
(PID.TID 0000.0001) generate Phyto: np =   14 pcmax    =  2.893518518518519E-005
(PID.TID 0000.0001) generate Phyto: np =   14 mQyield    =  6.900331000000000E-005
(PID.TID 0000.0001) generate Phyto: np =   14 chl2cmax     =  0.797375750000000
(PID.TID 0000.0001) generate Phyto: np =   15 FIXED - no DIAZO
(PID.TID 0000.0001) generate Phyto: np =   15 Topt       = -0.598599999999998
(PID.TID 0000.0001) generate Phyto: np =   15 growthdays =  0.700000000000000
(PID.TID 0000.0001) generate Phyto: np =   15 pcmax    =  1.653439153439154E-005
(PID.TID 0000.0001) generate Phyto: np =   15 mQyield    =  1.170347500000000E-004
(PID.TID 0000.0001) generate Phyto: np =   15 chl2cmax     =  0.452976200000000
(PID.TID 0000.0001) generate Phyto: np =   16 FIXED - no DIAZO
(PID.TID 0000.0001) generate Phyto: np =   16 Topt       =   10.2420400000000
(PID.TID 0000.0001) generate Phyto: np =   16 growthdays =  0.700000000000000
(PID.TID 0000.0001) generate Phyto: np =   16 pcmax    =  1.653439153439154E-005
(PID.TID 0000.0001) generate Phyto: np =   16 mQyield    =  1.396466250000000E-004
(PID.TID 0000.0001) generate Phyto: np =   16 chl2cmax     =  0.224009825000000
(PID.TID 0000.0001) generate Phyto: np =   17 FIXED - no DIAZO
(PID.TID 0000.0001) generate Phyto: np =   17 Topt       =   9.92804800000000
(PID.TID 0000.0001) generate Phyto: np =   17 growthdays =  0.700000000000000
(PID.TID 0000.0001) generate Phyto: np =   17 pcmax    =  1.653439153439154E-005
(PID.TID 0000.0001) generate Phyto: np =   17 mQyield    =  5.242715000000000E-005
(PID.TID 0000.0001) generate Phyto: np =   17 chl2cmax     =  0.292642625000000
(PID.TID 0000.0001) generate Phyto: np =   18 FIXED - no DIAZO
(PID.TID 0000.0001) generate Phyto: np =   18 Topt       =  -1.44964800000000
(PID.TID 0000.0001) generate Phyto: np =   18 growthdays =  0.700000000000000
(PID.TID 0000.0001) generate Phyto: np =   18 pcmax    =  1.653439153439154E-005
(PID.TID 0000.0001) generate Phyto: np =   18 mQyield    =  6.923902500000000E-005
(PID.TID 0000.0001) generate Phyto: np =   18 chl2cmax     =  0.398040950000000
(PID.TID 0000.0001) generate Phyto: np =   19 FIXED - no DIAZO
(PID.TID 0000.0001) generate Phyto: np =   19 Topt       =  0.834080000000000
(PID.TID 0000.0001) generate Phyto: np =   19 growthdays =  0.700000000000000
(PID.TID 0000.0001) generate Phyto: np =   19 pcmax    =  1.653439153439154E-005
(PID.TID 0000.0001) generate Phyto: np =   19 mQyield    =  6.527672500000001E-005
(PID.TID 0000.0001) generate Phyto: np =   19 chl2cmax     =  0.259002725000000
(PID.TID 0000.0001) generate Phyto: np =   20 FIXED - no DIAZO
(PID.TID 0000.0001) generate Phyto: np =   20 Topt       =   20.3217920000000
(PID.TID 0000.0001) generate Phyto: np =   20 growthdays =  0.700000000000000
(PID.TID 0000.0001) generate Phyto: np =   20 pcmax    =  1.653439153439154E-005
(PID.TID 0000.0001) generate Phyto: np =   20 mQyield    =  1.195940750000000E-004
(PID.TID 0000.0001) generate Phyto: np =   20 chl2cmax     =  0.284880125000000
(PID.TID 0000.0001) generate Phyto: np =   21 FIXED - no DIAZO
(PID.TID 0000.0001) generate Phyto: np =   21 Topt       =   4.70878400000000
(PID.TID 0000.0001) generate Phyto: np =   21 growthdays =  0.700000000000000
(PID.TID 0000.0001) generate Phyto: np =   21 pcmax    =  1.653439153439154E-005
(PID.TID 0000.0001) generate Phyto: np =   21 mQyield    =  1.421227000000000E-004
(PID.TID 0000.0001) generate Phyto: np =   21 chl2cmax     =  0.278457575000000
(PID.TID 0000.0001) generate Phyto: np =   22 FIXED - no DIAZO
(PID.TID 0000.0001) generate Phyto: np =   22 Topt       =   2.82448800000000
(PID.TID 0000.0001) generate Phyto: np =   22 growthdays =  0.400000000000000
(PID.TID 0000.0001) generate Phyto: np =   22 pcmax    =  2.893518518518519E-005
(PID.TID 0000.0001) generate Phyto: np =   22 mQyield    =  6.191477000000000E-005
(PID.TID 0000.0001) generate Phyto: np =   22 chl2cmax     =  0.625808600000000
(PID.TID 0000.0001) generate Phyto: np =   23 FIXED - no DIAZO
(PID.TID 0000.0001) generate Phyto: np =   23 Topt       =   20.5003680000000
(PID.TID 0000.0001) generate Phyto: np =   23 growthdays =  0.700000000000000
(PID.TID 0000.0001) generate Phyto: np =   23 pcmax    =  1.653439153439154E-005
(PID.TID 0000.0001) generate Phyto: np =   23 mQyield    =  1.471243500000000E-004
(PID.TID 0000.0001) generate Phyto: np =   23 chl2cmax     =  0.280508300000000
(PID.TID 0000.0001) generate Phyto: np =   24 FIXED - no DIAZO
(PID.TID 0000.0001) generate Phyto: np =   24 Topt       =   7.86132000000000
(PID.TID 0000.0001) generate Phyto: np =   24 growthdays =  0.400000000000000
(PID.TID 0000.0001) generate Phyto: np =   24 pcmax    =  2.893518518518519E-005
(PID.TID 0000.0001) generate Phyto: np =   24 mQyield    =  3.248801000000000E-005
(PID.TID 0000.0001) generate Phyto: np =   24 chl2cmax     =  0.703959575000000
(PID.TID 0000.0001) generate Phyto: np =   25 FIXED - no DIAZO
(PID.TID 0000.0001) generate Phyto: np =   25 Topt       =   11.2065040000000
(PID.TID 0000.0001) generate Phyto: np =   25 growthdays =  0.400000000000000
(PID.TID 0000.0001) generate Phyto: np =   25 pcmax    =  2.893518518518519E-005
(PID.TID 0000.0001) generate Phyto: np =   25 mQyield    =  5.747690000000000E-005
(PID.TID 0000.0001) generate Phyto: np =   25 chl2cmax     =  0.643194725000000
(PID.TID 0000.0001) generate Phyto: np =   26 FIXED - no DIAZO
(PID.TID 0000.0001) generate Phyto: np =   26 Topt       =   16.6538560000000
(PID.TID 0000.0001) generate Phyto: np =   26 growthdays =  0.400000000000000
(PID.TID 0000.0001) generate Phyto: np =   26 pcmax    =  2.893518518518519E-005
(PID.TID 0000.0001) generate Phyto: np =   26 mQyield    =  5.653374000000001E-005
(PID.TID 0000.0001) generate Phyto: np =   26 chl2cmax     =  0.621491000000000
(PID.TID 0000.0001) generate Phyto: np =   27 FIXED - no DIAZO
(PID.TID 0000.0001) generate Phyto: np =   27 Topt       =   26.8524240000000
(PID.TID 0000.0001) generate Phyto: np =   27 growthdays =  0.700000000000000
(PID.TID 0000.0001) generate Phyto: np =   27 pcmax    =  1.653439153439154E-005
(PID.TID 0000.0001) generate Phyto: np =   27 mQyield    =  9.238882500000001E-005
(PID.TID 0000.0001) generate Phyto: np =   27 chl2cmax     =  0.253017200000000
(PID.TID 0000.0001) generate Phyto: np =   28 FIXED - no DIAZO
(PID.TID 0000.0001) generate Phyto: np =   28 Topt       =  -1.62076800000000
(PID.TID 0000.0001) generate Phyto: np =   28 growthdays =  0.400000000000000
(PID.TID 0000.0001) generate Phyto: np =   28 pcmax    =  2.893518518518519E-005
(PID.TID 0000.0001) generate Phyto: np =   28 mQyield    =  6.588287000000000E-005
(PID.TID 0000.0001) generate Phyto: np =   28 chl2cmax     =  0.678967700000000
(PID.TID 0000.0001) generate Phyto: np =   29 FIXED - no DIAZO
(PID.TID 0000.0001) generate Phyto: np =   29 Topt       =   19.7977600000000
(PID.TID 0000.0001) generate Phyto: np =   29 growthdays =  0.700000000000000
(PID.TID 0000.0001) generate Phyto: np =   29 pcmax    =  1.653439153439154E-005
(PID.TID 0000.0001) generate Phyto: np =   29 mQyield    =  7.208722500000000E-005
(PID.TID 0000.0001) generate Phyto: np =   29 chl2cmax     =  0.224901575000000
(PID.TID 0000.0001) generate Phyto: np =   30 FIXED - no DIAZO
(PID.TID 0000.0001) generate Phyto: np =   30 Topt       =   2.27215200000000
(PID.TID 0000.0001) generate Phyto: np =   30 growthdays =  0.400000000000000
(PID.TID 0000.0001) generate Phyto: np =   30 pcmax    =  2.893518518518519E-005
(PID.TID 0000.0001) generate Phyto: np =   30 mQyield    =  4.406422000000000E-005
(PID.TID 0000.0001) generate Phyto: np =   30 chl2cmax     =  0.623621750000000
(PID.TID 0000.0001) generate Phyto: np =   31 FIXED - no DIAZO
(PID.TID 0000.0001) generate Phyto: np =   31 Topt       =   18.7074880000000
(PID.TID 0000.0001) generate Phyto: np =   31 growthdays =  0.700000000000000
(PID.TID 0000.0001) generate Phyto: np =   31 pcmax    =  1.653439153439154E-005
(PID.TID 0000.0001) generate Phyto: np =   31 mQyield    =  5.982470000000000E-005
(PID.TID 0000.0001) generate Phyto: np =   31 chl2cmax     =  0.391444475000000
(PID.TID 0000.0001) generate Phyto: np =   32 FIXED - no DIAZO
(PID.TID 0000.0001) generate Phyto: np =   32 Topt       =   26.6920640000000
(PID.TID 0000.0001) generate Phyto: np =   32 growthdays =  0.700000000000000
(PID.TID 0000.0001) generate Phyto: np =   32 pcmax    =  1.653439153439154E-005
(PID.TID 0000.0001) generate Phyto: np =   32 mQyield    =  1.226342500000000E-004
(PID.TID 0000.0001) generate Phyto: np =   32 chl2cmax     =  0.370026950000000
(PID.TID 0000.0001) generate Phyto: np =   33 FIXED - no DIAZO
(PID.TID 0000.0001) generate Phyto: np =   33 Topt       =   9.46773600000000
(PID.TID 0000.0001) generate Phyto: np =   33 growthdays =  0.400000000000000
(PID.TID 0000.0001) generate Phyto: np =   33 pcmax    =  2.893518518518519E-005
(PID.TID 0000.0001) generate Phyto: np =   33 mQyield    =  5.541032000000000E-005
(PID.TID 0000.0001) generate Phyto: np =   33 chl2cmax     =  0.686507750000000
(PID.TID 0000.0001) generate Phyto: np =   34 FIXED - no DIAZO
(PID.TID 0000.0001) generate Phyto: np =   34 Topt       =  -1.38958400000000
(PID.TID 0000.0001) generate Phyto: np =   34 growthdays =  0.700000000000000
(PID.TID 0000.0001) generate Phyto: np =   34 pcmax    =  1.653439153439154E-005
(PID.TID 0000.0001) generate Phyto: np =   34 mQyield    =  7.154470000000000E-005
(PID.TID 0000.0001) generate Phyto: np =   34 chl2cmax     =  0.386004725000000
(PID.TID 0000.0001) generate Phyto: np =   35 FIXED - no DIAZO
(PID.TID 0000.0001) generate Phyto: np =   35 Topt       =   24.1634240000000
(PID.TID 0000.0001) generate Phyto: np =   35 growthdays =  0.400000000000000
(PID.TID 0000.0001) generate Phyto: np =   35 pcmax    =  2.893518518518519E-005
(PID.TID 0000.0001) generate Phyto: np =   35 mQyield    =  3.899448000000000E-005
(PID.TID 0000.0001) generate Phyto: np =   35 chl2cmax     =  0.728257850000000
(PID.TID 0000.0001) generate Phyto: np =   36 FIXED - no DIAZO
(PID.TID 0000.0001) generate Phyto: np =   36 Topt       =   5.15795200000000
(PID.TID 0000.0001) generate Phyto: np =   36 growthdays =  0.400000000000000
(PID.TID 0000.0001) generate Phyto: np =   36 pcmax    =  2.893518518518519E-005
(PID.TID 0000.0001) generate Phyto: np =   36 mQyield    =  6.124256000000001E-005
(PID.TID 0000.0001) generate Phyto: np =   36 chl2cmax     =  0.587763425000000
(PID.TID 0000.0001) generate Phyto: np =   37 FIXED - no DIAZO
(PID.TID 0000.0001) generate Phyto: np =   37 Topt       =   24.7487600000000
(PID.TID 0000.0001) generate Phyto: np =   37 growthdays =  0.400000000000000
(PID.TID 0000.0001) generate Phyto: np =   37 pcmax    =  2.893518518518519E-005
(PID.TID 0000.0001) generate Phyto: np =   37 mQyield    =  3.490995000000000E-005
(PID.TID 0000.0001) generate Phyto: np =   37 chl2cmax     =  0.608255450000000
(PID.TID 0000.0001) generate Phyto: np =   38 FIXED - no DIAZO
(PID.TID 0000.0001) generate Phyto: np =   38 Topt       =   20.3080240000000
(PID.TID 0000.0001) generate Phyto: np =   38 growthdays =  0.700000000000000
(PID.TID 0000.0001) generate Phyto: np =   38 pcmax    =  1.653439153439154E-005
(PID.TID 0000.0001) generate Phyto: np =   38 mQyield    =  6.816325000000001E-005
(PID.TID 0000.0001) generate Phyto: np =   38 chl2cmax     =  0.325929350000000
(PID.TID 0000.0001) generate Phyto: np =   39 FIXED - no DIAZO
(PID.TID 0000.0001) generate Phyto: np =   39 Topt       =   9.80770400000000
(PID.TID 0000.0001) generate Phyto: np =   39 growthdays =  0.700000000000000
(PID.TID 0000.0001) generate Phyto: np =   39 pcmax    =  1.653439153439154E-005
(PID.TID 0000.0001) generate Phyto: np =   39 mQyield    =  1.123641750000000E-004
(PID.TID 0000.0001) generate Phyto: np =   39 chl2cmax     =  0.299775425000000
(PID.TID 0000.0001) generate Phyto: np =   40 FIXED - no DIAZO
(PID.TID 0000.0001) generate Phyto: np =   40 Topt       =   23.4752240000000
(PID.TID 0000.0001) generate Phyto: np =   40 growthdays =  0.400000000000000
(PID.TID 0000.0001) generate Phyto: np =   40 pcmax    =  2.893518518518519E-005
(PID.TID 0000.0001) generate Phyto: np =   40 mQyield    =  4.807918000000000E-005
(PID.TID 0000.0001) generate Phyto: np =   40 chl2cmax     =  0.542114600000000
(PID.TID 0000.0001) generate Phyto: np =   41 FIXED - no DIAZO
(PID.TID 0000.0001) generate Phyto: np =   41 Topt       =   2.30737600000000
(PID.TID 0000.0001) generate Phyto: np =   41 growthdays =  0.400000000000000
(PID.TID 0000.0001) generate Phyto: np =   41 pcmax    =  2.893518518518519E-005
(PID.TID 0000.0001) generate Phyto: np =   41 mQyield    =  3.310228000000000E-005
(PID.TID 0000.0001) generate Phyto: np =   41 chl2cmax     =  0.559027400000000
(PID.TID 0000.0001) generate Phyto: np =   42 FIXED - no DIAZO
(PID.TID 0000.0001) generate Phyto: np =   42 Topt       =   3.94357600000000
(PID.TID 0000.0001) generate Phyto: np =   42 growthdays =  0.700000000000000
(PID.TID 0000.0001) generate Phyto: np =   42 pcmax    =  1.653439153439154E-005
(PID.TID 0000.0001) generate Phyto: np =   42 mQyield    =  1.460202000000000E-004
(PID.TID 0000.0001) generate Phyto: np =   42 chl2cmax     =  0.413458700000000
(PID.TID 0000.0001) generate Phyto: np =   43 FIXED - no DIAZO
(PID.TID 0000.0001) generate Phyto: np =   43 Topt       =   22.4698720000000
(PID.TID 0000.0001) generate Phyto: np =   43 growthdays =  0.700000000000000
(PID.TID 0000.0001) generate Phyto: np =   43 pcmax    =  1.653439153439154E-005
(PID.TID 0000.0001) generate Phyto: np =   43 mQyield    =  9.784560000000001E-005
(PID.TID 0000.0001) generate Phyto: np =   43 chl2cmax     =  0.307914350000000
(PID.TID 0000.0001) generate Phyto: np =   44 FIXED - no DIAZO
(PID.TID 0000.0001) generate Phyto: np =   44 Topt       =   23.5114240000000
(PID.TID 0000.0001) generate Phyto: np =   44 growthdays =  0.700000000000000
(PID.TID 0000.0001) generate Phyto: np =   44 pcmax    =  1.653439153439154E-005
(PID.TID 0000.0001) generate Phyto: np =   44 mQyield    =  5.385197500000000E-005
(PID.TID 0000.0001) generate Phyto: np =   44 chl2cmax     =  0.462733325000000
(PID.TID 0000.0001) generate Phyto: np =   45 FIXED - no DIAZO
(PID.TID 0000.0001) generate Phyto: np =   45 Topt       =  0.777320000000000
(PID.TID 0000.0001) generate Phyto: np =   45 growthdays =  0.400000000000000
(PID.TID 0000.0001) generate Phyto: np =   45 pcmax    =  2.893518518518519E-005
(PID.TID 0000.0001) generate Phyto: np =   45 mQyield    =  6.874331000000000E-005
(PID.TID 0000.0001) generate Phyto: np =   45 chl2cmax     =  0.795746450000000
(PID.TID 0000.0001) generate Phyto: np =   46 FIXED - no DIAZO
(PID.TID 0000.0001) generate Phyto: np =   46 Topt       =   17.6312800000000
(PID.TID 0000.0001) generate Phyto: np =   46 growthdays =  0.400000000000000
(PID.TID 0000.0001) generate Phyto: np =   46 pcmax    =  2.893518518518519E-005
(PID.TID 0000.0001) generate Phyto: np =   46 mQyield    =  6.879153000000000E-005
(PID.TID 0000.0001) generate Phyto: np =   46 chl2cmax     =  0.686424575000000
(PID.TID 0000.0001) generate Phyto: np =   47 FIXED - no DIAZO
(PID.TID 0000.0001) generate Phyto: np =   47 Topt       =   2.17388800000000
(PID.TID 0000.0001) generate Phyto: np =   47 growthdays =  0.700000000000000
(PID.TID 0000.0001) generate Phyto: np =   47 pcmax    =  1.653439153439154E-005
(PID.TID 0000.0001) generate Phyto: np =   47 mQyield    =  1.401054500000000E-004
(PID.TID 0000.0001) generate Phyto: np =   47 chl2cmax     =  0.213783725000000
(PID.TID 0000.0001) generate Phyto: np =   48 FIXED - no DIAZO
(PID.TID 0000.0001) generate Phyto: np =   48 Topt       =   27.4899680000000
(PID.TID 0000.0001) generate Phyto: np =   48 growthdays =  0.400000000000000
(PID.TID 0000.0001) generate Phyto: np =   48 pcmax    =  2.893518518518519E-005
(PID.TID 0000.0001) generate Phyto: np =   48 mQyield    =  4.076770000000000E-005
(PID.TID 0000.0001) generate Phyto: np =   48 chl2cmax     =  0.612061850000000
(PID.TID 0000.0001) generate Phyto: np =   49 FIXED - no DIAZO
(PID.TID 0000.0001) generate Phyto: np =   49 Topt       =   9.77611200000000
(PID.TID 0000.0001) generate Phyto: np =   49 growthdays =  0.400000000000000
(PID.TID 0000.0001) generate Phyto: np =   49 pcmax    =  2.893518518518519E-005
(PID.TID 0000.0001) generate Phyto: np =   49 mQyield    =  5.480429000000001E-005
(PID.TID 0000.0001) generate Phyto: np =   49 chl2cmax     =  0.663280025000000
(PID.TID 0000.0001) generate Phyto: np =   50 FIXED - no DIAZO
(PID.TID 0000.0001) generate Phyto: np =   50 Topt       =   17.1682960000000
(PID.TID 0000.0001) generate Phyto: np =   50 growthdays =  0.400000000000000
(PID.TID 0000.0001) generate Phyto: np =   50 pcmax    =  2.893518518518519E-005
(PID.TID 0000.0001) generate Phyto: np =   50 mQyield    =  6.612149000000001E-005
(PID.TID 0000.0001) generate Phyto: np =   50 chl2cmax     =  0.733485650000000
(PID.TID 0000.0001) generate Phyto: np =   51 FIXED - no DIAZO
(PID.TID 0000.0001) generate Phyto: np =   51 Topt       =   1.05308800000000
(PID.TID 0000.0001) generate Phyto: np =   51 growthdays =  0.400000000000000
(PID.TID 0000.0001) generate Phyto: np =   51 pcmax    =  2.893518518518519E-005
(PID.TID 0000.0001) generate Phyto: np =   51 mQyield    =  3.025838000000000E-005
(PID.TID 0000.0001) generate Phyto: np =   51 chl2cmax     =  0.783124400000000
(PID.TID 0000.0001) generate Phyto: np =   52 FIXED - no DIAZO
(PID.TID 0000.0001) generate Phyto: np =   52 Topt       =   23.3819600000000
(PID.TID 0000.0001) generate Phyto: np =   52 growthdays =  0.700000000000000
(PID.TID 0000.0001) generate Phyto: np =   52 pcmax    =  1.653439153439154E-005
(PID.TID 0000.0001) generate Phyto: np =   52 mQyield    =  5.932622500000000E-005
(PID.TID 0000.0001) generate Phyto: np =   52 chl2cmax     =  0.328294325000000
(PID.TID 0000.0001) generate Phyto: np =   53 FIXED - no DIAZO
(PID.TID 0000.0001) generate Phyto: np =   53 Topt       =   28.4300560000000
(PID.TID 0000.0001) generate Phyto: np =   53 growthdays =  0.400000000000000
(PID.TID 0000.0001) generate Phyto: np =   53 pcmax    =  2.893518518518519E-005
(PID.TID 0000.0001) generate Phyto: np =   53 mQyield    =  4.142825000000000E-005
(PID.TID 0000.0001) generate Phyto: np =   53 chl2cmax     =  0.588887675000000
(PID.TID 0000.0001) generate Phyto: np =   54 FIXED - no DIAZO
(PID.TID 0000.0001) generate Phyto: np =   54 Topt       =   21.7244160000000
(PID.TID 0000.0001) generate Phyto: np =   54 growthdays =  0.400000000000000
(PID.TID 0000.0001) generate Phyto: np =   54 pcmax    =  2.893518518518519E-005
(PID.TID 0000.0001) generate Phyto: np =   54 mQyield    =  5.326477000000000E-005
(PID.TID 0000.0001) generate Phyto: np =   54 chl2cmax     =  0.676219775000000
(PID.TID 0000.0001) generate Phyto: np =   55 FIXED - no DIAZO
(PID.TID 0000.0001) generate Phyto: np =   55 Topt       =   16.6858720000000
(PID.TID 0000.0001) generate Phyto: np =   55 growthdays =  0.700000000000000
(PID.TID 0000.0001) generate Phyto: np =   55 pcmax    =  1.653439153439154E-005
(PID.TID 0000.0001) generate Phyto: np =   55 mQyield    =  9.243460000000000E-005
(PID.TID 0000.0001) generate Phyto: np =   55 chl2cmax     =  0.295399250000000
(PID.TID 0000.0001) generate Phyto: np =   56 FIXED - no DIAZO
(PID.TID 0000.0001) generate Phyto: np =   56 Topt       =   21.3687920000000
(PID.TID 0000.0001) generate Phyto: np =   56 growthdays =  0.400000000000000
(PID.TID 0000.0001) generate Phyto: np =   56 pcmax    =  2.893518518518519E-005
(PID.TID 0000.0001) generate Phyto: np =   56 mQyield    =  5.857153000000000E-005
(PID.TID 0000.0001) generate Phyto: np =   56 chl2cmax     =  0.728020850000000
(PID.TID 0000.0001) generate Phyto: np =   57 FIXED - no DIAZO
(PID.TID 0000.0001) generate Phyto: np =   57 Topt       =   18.0541600000000
(PID.TID 0000.0001) generate Phyto: np =   57 growthdays =  0.400000000000000
(PID.TID 0000.0001) generate Phyto: np =   57 pcmax    =  2.893518518518519E-005
(PID.TID 0000.0001) generate Phyto: np =   57 mQyield    =  6.550621999999999E-005
(PID.TID 0000.0001) generate Phyto: np =   57 chl2cmax     =  0.581839850000000
(PID.TID 0000.0001) generate Phyto: np =   58 FIXED - no DIAZO
(PID.TID 0000.0001) generate Phyto: np =   58 Topt       =  -1.04718400000000
(PID.TID 0000.0001) generate Phyto: np =   58 growthdays =  0.700000000000000
(PID.TID 0000.0001) generate Phyto: np =   58 pcmax    =  1.653439153439154E-005
(PID.TID 0000.0001) generate Phyto: np =   58 mQyield    =  1.419254750000000E-004
(PID.TID 0000.0001) generate Phyto: np =   58 chl2cmax     =  0.482655050000000
(PID.TID 0000.0001) generate Phyto: np =   59 FIXED - no DIAZO
(PID.TID 0000.0001) generate Phyto: np =   59 Topt       =   23.4136160000000
(PID.TID 0000.0001) generate Phyto: np =   59 growthdays =  0.700000000000000
(PID.TID 0000.0001) generate Phyto: np =   59 pcmax    =  1.653439153439154E-005
(PID.TID 0000.0001) generate Phyto: np =   59 mQyield    =  5.625345000000000E-005
(PID.TID 0000.0001) generate Phyto: np =   59 chl2cmax     =  0.350351525000000
(PID.TID 0000.0001) generate Phyto: np =   60 FIXED - no DIAZO
(PID.TID 0000.0001) generate Phyto: np =   60 Topt       =   6.38521600000000
(PID.TID 0000.0001) generate Phyto: np =   60 growthdays =  0.700000000000000
(PID.TID 0000.0001) generate Phyto: np =   60 pcmax    =  1.653439153439154E-005
(PID.TID 0000.0001) generate Phyto: np =   60 mQyield    =  1.327324750000000E-004
(PID.TID 0000.0001) generate Phyto: np =   60 chl2cmax     =  0.252448400000000
(PID.TID 0000.0001) generate Phyto: np =   61 FIXED - no DIAZO
(PID.TID 0000.0001) generate Phyto: np =   61 Topt       =   2.44734400000000
(PID.TID 0000.0001) generate Phyto: np =   61 growthdays =  0.400000000000000
(PID.TID 0000.0001) generate Phyto: np =   61 pcmax    =  2.893518518518519E-005
(PID.TID 0000.0001) generate Phyto: np =   61 mQyield    =  3.255603000000000E-005
(PID.TID 0000.0001) generate Phyto: np =   61 chl2cmax     =  0.797246375000000
(PID.TID 0000.0001) generate Phyto: np =   62 FIXED - no DIAZO
(PID.TID 0000.0001) generate Phyto: np =   62 Topt       =  0.134120000000003
(PID.TID 0000.0001) generate Phyto: np =   62 growthdays =  0.400000000000000
(PID.TID 0000.0001) generate Phyto: np =   62 pcmax    =  2.893518518518519E-005
(PID.TID 0000.0001) generate Phyto: np =   62 mQyield    =  3.736235000000000E-005
(PID.TID 0000.0001) generate Phyto: np =   62 chl2cmax     =  0.677812625000000
(PID.TID 0000.0001) generate Phyto: np =   63 FIXED - no DIAZO
(PID.TID 0000.0001) generate Phyto: np =   63 Topt       =   16.4760720000000
(PID.TID 0000.0001) generate Phyto: np =   63 growthdays =  0.700000000000000
(PID.TID 0000.0001) generate Phyto: np =   63 pcmax    =  1.653439153439154E-005
(PID.TID 0000.0001) generate Phyto: np =   63 mQyield    =  6.092040000000000E-005
(PID.TID 0000.0001) generate Phyto: np =   63 chl2cmax     =  0.290014625000000
(PID.TID 0000.0001) generate Phyto: np =   64 FIXED - no DIAZO
(PID.TID 0000.0001) generate Phyto: np =   64 Topt       =   6.95924800000000
(PID.TID 0000.0001) generate Phyto: np =   64 growthdays =  0.700000000000000
(PID.TID 0000.0001) generate Phyto: np =   64 pcmax    =  1.653439153439154E-005
(PID.TID 0000.0001) generate Phyto: np =   64 mQyield    =  9.916595000000000E-005
(PID.TID 0000.0001) generate Phyto: np =   64 chl2cmax     =  0.296660600000000
(PID.TID 0000.0001) generate Phyto: np =   65 FIXED - no DIAZO
(PID.TID 0000.0001) generate Phyto: np =   65 Topt       =  -1.58132000000000
(PID.TID 0000.0001) generate Phyto: np =   65 growthdays =  0.700000000000000
(PID.TID 0000.0001) generate Phyto: np =   65 pcmax    =  1.653439153439154E-005
(PID.TID 0000.0001) generate Phyto: np =   65 mQyield    =  1.415734000000000E-004
(PID.TID 0000.0001) generate Phyto: np =   65 chl2cmax     =  0.429987800000000
(PID.TID 0000.0001) generate Phyto: np =   66 FIXED - no DIAZO
(PID.TID 0000.0001) generate Phyto: np =   66 Topt       =   3.72876800000000
(PID.TID 0000.0001) generate Phyto: np =   66 growthdays =  0.400000000000000
(PID.TID 0000.0001) generate Phyto: np =   66 pcmax    =  2.893518518518519E-005
(PID.TID 0000.0001) generate Phyto: np =   66 mQyield    =  3.563988000000000E-005
(PID.TID 0000.0001) generate Phyto: np =   66 chl2cmax     =  0.797280050000000
(PID.TID 0000.0001) generate Phyto: np =   67 FIXED - no DIAZO
(PID.TID 0000.0001) generate Phyto: np =   67 Topt       =   15.5102320000000
(PID.TID 0000.0001) generate Phyto: np =   67 growthdays =  0.400000000000000
(PID.TID 0000.0001) generate Phyto: np =   67 pcmax    =  2.893518518518519E-005
(PID.TID 0000.0001) generate Phyto: np =   67 mQyield    =  5.086388000000000E-005
(PID.TID 0000.0001) generate Phyto: np =   67 chl2cmax     =  0.582765950000000
(PID.TID 0000.0001) generate Phyto: np =   68 FIXED - no DIAZO
(PID.TID 0000.0001) generate Phyto: np =   68 Topt       =   10.5571360000000
(PID.TID 0000.0001) generate Phyto: np =   68 growthdays =  0.400000000000000
(PID.TID 0000.0001) generate Phyto: np =   68 pcmax    =  2.893518518518519E-005
(PID.TID 0000.0001) generate Phyto: np =   68 mQyield    =  6.444926000000000E-005
(PID.TID 0000.0001) generate Phyto: np =   68 chl2cmax     =  0.752697950000000
(PID.TID 0000.0001) generate Phyto: np =   69 FIXED - no DIAZO
(PID.TID 0000.0001) generate Phyto: np =   69 Topt       =   1.74670400000000
(PID.TID 0000.0001) generate Phyto: np =   69 growthdays =  0.400000000000000
(PID.TID 0000.0001) generate Phyto: np =   69 pcmax    =  2.893518518518519E-005
(PID.TID 0000.0001) generate Phyto: np =   69 mQyield    =  6.274225999999999E-005
(PID.TID 0000.0001) generate Phyto: np =   69 chl2cmax     =  0.729323225000000
(PID.TID 0000.0001) generate Phyto: np =   70 FIXED - no DIAZO
(PID.TID 0000.0001) generate Phyto: np =   70 Topt       =   19.1291920000000
(PID.TID 0000.0001) generate Phyto: np =   70 growthdays =  0.400000000000000
(PID.TID 0000.0001) generate Phyto: np =   70 pcmax    =  2.893518518518519E-005
(PID.TID 0000.0001) generate Phyto: np =   70 mQyield    =  5.547579000000000E-005
(PID.TID 0000.0001) generate Phyto: np =   70 chl2cmax     =  0.549493775000000
(PID.TID 0000.0001) generate Phyto: np =   71 FIXED - no DIAZO
(PID.TID 0000.0001) generate Phyto: np =   71 Topt       =   21.6711680000000
(PID.TID 0000.0001) generate Phyto: np =   71 growthdays =  0.700000000000000
(PID.TID 0000.0001) generate Phyto: np =   71 pcmax    =  1.653439153439154E-005
(PID.TID 0000.0001) generate Phyto: np =   71 mQyield    =  5.251670000000000E-005
(PID.TID 0000.0001) generate Phyto: np =   71 chl2cmax     =  0.308827475000000
(PID.TID 0000.0001) generate Phyto: np =   72 FIXED - no DIAZO
(PID.TID 0000.0001) generate Phyto: np =   72 Topt       =  -1.52951200000000
(PID.TID 0000.0001) generate Phyto: np =   72 growthdays =  0.700000000000000
(PID.TID 0000.0001) generate Phyto: np =   72 pcmax    =  1.653439153439154E-005
(PID.TID 0000.0001) generate Phyto: np =   72 mQyield    =  7.285080000000001E-005
(PID.TID 0000.0001) generate Phyto: np =   72 chl2cmax     =  0.316260800000000
(PID.TID 0000.0001) generate Phyto: np =   73 FIXED - no DIAZO
(PID.TID 0000.0001) generate Phyto: np =   73 Topt       =   12.4068320000000
(PID.TID 0000.0001) generate Phyto: np =   73 growthdays =  0.400000000000000
(PID.TID 0000.0001) generate Phyto: np =   73 pcmax    =  2.893518518518519E-005
(PID.TID 0000.0001) generate Phyto: np =   73 mQyield    =  3.074253000000000E-005
(PID.TID 0000.0001) generate Phyto: np =   73 chl2cmax     =  0.519024125000000
(PID.TID 0000.0001) generate Phyto: np =   74 FIXED - no DIAZO
(PID.TID 0000.0001) generate Phyto: np =   74 Topt       =   14.7909680000000
(PID.TID 0000.0001) generate Phyto: np =   74 growthdays =  0.700000000000000
(PID.TID 0000.0001) generate Phyto: np =   74 pcmax    =  1.653439153439154E-005
(PID.TID 0000.0001) generate Phyto: np =   74 mQyield    =  1.397618250000000E-004
(PID.TID 0000.0001) generate Phyto: np =   74 chl2cmax     =  0.420840275000000
(PID.TID 0000.0001) generate Phyto: np =   75 FIXED - no DIAZO
(PID.TID 0000.0001) generate Phyto: np =   75 Topt       =   24.9903760000000
(PID.TID 0000.0001) generate Phyto: np =   75 growthdays =  0.700000000000000
(PID.TID 0000.0001) generate Phyto: np =   75 pcmax    =  1.653439153439154E-005
(PID.TID 0000.0001) generate Phyto: np =   75 mQyield    =  8.385962500000001E-005
(PID.TID 0000.0001) generate Phyto: np =   75 chl2cmax     =  0.436977875000000
(PID.TID 0000.0001) generate Phyto: np =   76 FIXED - no DIAZO
(PID.TID 0000.0001) generate Phyto: np =   76 Topt       =   16.6422480000000
(PID.TID 0000.0001) generate Phyto: np =   76 growthdays =  0.700000000000000
(PID.TID 0000.0001) generate Phyto: np =   76 pcmax    =  1.653439153439154E-005
(PID.TID 0000.0001) generate Phyto: np =   76 mQyield    =  1.025323000000000E-004
(PID.TID 0000.0001) generate Phyto: np =   76 chl2cmax     =  0.435498125000000
(PID.TID 0000.0001) generate Phyto: np =   77 FIXED - no DIAZO
(PID.TID 0000.0001) generate Phyto: np =   77 Topt       =   24.3448640000000
(PID.TID 0000.0001) generate Phyto: np =   77 growthdays =  0.700000000000000
(PID.TID 0000.0001) generate Phyto: np =   77 pcmax    =  1.653439153439154E-005
(PID.TID 0000.0001) generate Phyto: np =   77 mQyield    =  5.412007500000000E-005
(PID.TID 0000.0001) generate Phyto: np =   77 chl2cmax     =  0.448623950000000
(PID.TID 0000.0001) generate Phyto: np =   78 FIXED - no DIAZO
(PID.TID 0000.0001) generate Phyto: np =   78 Topt       = -0.745815999999998
(PID.TID 0000.0001) generate Phyto: np =   78 growthdays =  0.700000000000000
(PID.TID 0000.0001) generate Phyto: np =   78 pcmax    =  1.653439153439154E-005
(PID.TID 0000.0001) generate Phyto: np =   78 mQyield    =  1.118953000000000E-004
(PID.TID 0000.0001) generate Phyto: np =   78 chl2cmax     =  0.341628500000000
(PID.TID 0000.0001) QQ start timeave
(PID.TID 0000.0001) // =======================================================
(PID.TID 0000.0001) // Darwin init variables >>> END <<<
(PID.TID 0000.0001) // =======================================================
(PID.TID 0000.0001) // =======================================================
(PID.TID 0000.0001) // Model current state
(PID.TID 0000.0001) // =======================================================
(PID.TID 0000.0001) 
(PID.TID 0000.0001) // =======================================================
(PID.TID 0000.0001) // Begin MONITOR dynamic field statistics
(PID.TID 0000.0001) // =======================================================
(PID.TID 0000.0001) %MON time_tsnumber                =                     0
(PID.TID 0000.0001) %MON time_secondsf                =   0.0000000000000E+00
(PID.TID 0000.0001) %MON dynstat_eta_max              =   0.0000000000000E+00
(PID.TID 0000.0001) %MON dynstat_eta_min              =   0.0000000000000E+00
(PID.TID 0000.0001) %MON dynstat_eta_mean             =   0.0000000000000E+00
(PID.TID 0000.0001) %MON dynstat_eta_sd               =   0.0000000000000E+00
(PID.TID 0000.0001) %MON dynstat_eta_del2             =   0.0000000000000E+00
(PID.TID 0000.0001) %MON dynstat_uvel_max             =   0.0000000000000E+00
(PID.TID 0000.0001) %MON dynstat_uvel_min             =   0.0000000000000E+00
(PID.TID 0000.0001) %MON dynstat_uvel_mean            =   0.0000000000000E+00
(PID.TID 0000.0001) %MON dynstat_uvel_sd              =   0.0000000000000E+00
(PID.TID 0000.0001) %MON dynstat_uvel_del2            =   0.0000000000000E+00
(PID.TID 0000.0001) %MON dynstat_vvel_max             =   0.0000000000000E+00
(PID.TID 0000.0001) %MON dynstat_vvel_min             =   0.0000000000000E+00
(PID.TID 0000.0001) %MON dynstat_vvel_mean            =   0.0000000000000E+00
(PID.TID 0000.0001) %MON dynstat_vvel_sd              =   0.0000000000000E+00
(PID.TID 0000.0001) %MON dynstat_vvel_del2            =   0.0000000000000E+00
(PID.TID 0000.0001) %MON dynstat_wvel_max             =   0.0000000000000E+00
(PID.TID 0000.0001) %MON dynstat_wvel_min             =   0.0000000000000E+00
(PID.TID 0000.0001) %MON dynstat_wvel_mean            =   0.0000000000000E+00
(PID.TID 0000.0001) %MON dynstat_wvel_sd              =   0.0000000000000E+00
(PID.TID 0000.0001) %MON dynstat_wvel_del2            =   0.0000000000000E+00
(PID.TID 0000.0001) %MON dynstat_theta_max            =   2.6345800399780E+01
(PID.TID 0000.0001) %MON dynstat_theta_min            =   2.6737000942230E+00
(PID.TID 0000.0001) %MON dynstat_theta_mean           =   5.4735936027058E+00
(PID.TID 0000.0001) %MON dynstat_theta_sd             =   5.1972090828105E+00
(PID.TID 0000.0001) %MON dynstat_theta_del2           =   0.0000000000000E+00
(PID.TID 0000.0001) %MON dynstat_salt_max             =   3.5000000000000E+01
(PID.TID 0000.0001) %MON dynstat_salt_min             =   3.5000000000000E+01
(PID.TID 0000.0001) %MON dynstat_salt_mean            =   3.5000000000000E+01
(PID.TID 0000.0001) %MON dynstat_salt_sd              =   7.1054273576010E-15
(PID.TID 0000.0001) %MON dynstat_salt_del2            =   0.0000000000000E+00
(PID.TID 0000.0001) %MON dynstat_sst_max              =   2.6345800399780E+01
(PID.TID 0000.0001) %MON dynstat_sst_min              =   2.6345800399780E+01
(PID.TID 0000.0001) %MON dynstat_sst_mean             =   2.6345800399780E+01
(PID.TID 0000.0001) %MON dynstat_sst_sd               =   0.0000000000000E+00
(PID.TID 0000.0001) %MON dynstat_sst_del2             =   0.0000000000000E+00
(PID.TID 0000.0001) %MON dynstat_sss_max              =   3.5000000000000E+01
(PID.TID 0000.0001) %MON dynstat_sss_min              =   3.5000000000000E+01
(PID.TID 0000.0001) %MON dynstat_sss_mean             =   3.5000000000000E+01
(PID.TID 0000.0001) %MON dynstat_sss_sd               =   0.0000000000000E+00
(PID.TID 0000.0001) %MON dynstat_sss_del2             =   0.0000000000000E+00
(PID.TID 0000.0001) %MON extforcing_qnet_max          =   0.0000000000000E+00
(PID.TID 0000.0001) %MON extforcing_qnet_min          =   0.0000000000000E+00
(PID.TID 0000.0001) %MON extforcing_qnet_mean         =   0.0000000000000E+00
(PID.TID 0000.0001) %MON extforcing_qnet_sd           =   0.0000000000000E+00
(PID.TID 0000.0001) %MON extforcing_qnet_del2         =   0.0000000000000E+00
(PID.TID 0000.0001) %MON extforcing_qsw_max           =   0.0000000000000E+00
(PID.TID 0000.0001) %MON extforcing_qsw_min           =   0.0000000000000E+00
(PID.TID 0000.0001) %MON extforcing_qsw_mean          =   0.0000000000000E+00
(PID.TID 0000.0001) %MON extforcing_qsw_sd            =   0.0000000000000E+00
(PID.TID 0000.0001) %MON extforcing_qsw_del2          =   0.0000000000000E+00
(PID.TID 0000.0001) %MON extforcing_empmr_max         =   0.0000000000000E+00
(PID.TID 0000.0001) %MON extforcing_empmr_min         =   0.0000000000000E+00
(PID.TID 0000.0001) %MON extforcing_empmr_mean        =   0.0000000000000E+00
(PID.TID 0000.0001) %MON extforcing_empmr_sd          =   0.0000000000000E+00
(PID.TID 0000.0001) %MON extforcing_empmr_del2        =   0.0000000000000E+00
(PID.TID 0000.0001) %MON extforcing_fu_max            =   0.0000000000000E+00
(PID.TID 0000.0001) %MON extforcing_fu_min            =   0.0000000000000E+00
(PID.TID 0000.0001) %MON extforcing_fu_mean           =   0.0000000000000E+00
(PID.TID 0000.0001) %MON extforcing_fu_sd             =   0.0000000000000E+00
(PID.TID 0000.0001) %MON extforcing_fu_del2           =   0.0000000000000E+00
(PID.TID 0000.0001) %MON extforcing_fv_max            =   0.0000000000000E+00
(PID.TID 0000.0001) %MON extforcing_fv_min            =   0.0000000000000E+00
(PID.TID 0000.0001) %MON extforcing_fv_mean           =   0.0000000000000E+00
(PID.TID 0000.0001) %MON extforcing_fv_sd             =   0.0000000000000E+00
(PID.TID 0000.0001) %MON extforcing_fv_del2           =   0.0000000000000E+00
(PID.TID 0000.0001) %MON advcfl_uvel_max              =   0.0000000000000E+00
(PID.TID 0000.0001) %MON advcfl_vvel_max              =   0.0000000000000E+00
(PID.TID 0000.0001) %MON advcfl_wvel_max              =   0.0000000000000E+00
(PID.TID 0000.0001) %MON advcfl_W_hf_max              =   0.0000000000000E+00
(PID.TID 0000.0001) %MON pe_b_mean                    =   0.0000000000000E+00
(PID.TID 0000.0001) %MON ke_max                       =   0.0000000000000E+00
(PID.TID 0000.0001) %MON ke_mean                      =   0.0000000000000E+00
(PID.TID 0000.0001) %MON ke_vol                       =   4.1199767883485E+13
(PID.TID 0000.0001) %MON vort_r_min                   =   0.0000000000000E+00
(PID.TID 0000.0001) %MON vort_r_max                   =   0.0000000000000E+00
(PID.TID 0000.0001) %MON vort_a_mean                  =  -4.5067801836625E-05
(PID.TID 0000.0001) %MON vort_a_sd                    =  -4.1359030627651E-25
(PID.TID 0000.0001) %MON vort_p_mean                  =  -4.5067801836625E-05
(PID.TID 0000.0001) %MON vort_p_sd                    =   0.0000000000000E+00
(PID.TID 0000.0001) %MON surfExpan_theta_mean         =   0.0000000000000E+00
(PID.TID 0000.0001) %MON surfExpan_salt_mean          =   0.0000000000000E+00
(PID.TID 0000.0001) // =======================================================
(PID.TID 0000.0001) // End MONITOR dynamic field statistics
(PID.TID 0000.0001) // =======================================================
(PID.TID 0000.0001) // =======================================================
(PID.TID 0000.0001) // Begin MONITOR ptracer field statistics
(PID.TID 0000.0001) // =======================================================
(PID.TID 0000.0001) %MON trcstat_ptracer01_max        =   2.2437000274658E+00
(PID.TID 0000.0001) %MON trcstat_ptracer01_min        =   2.1024999022484E-01
(PID.TID 0000.0001) %MON trcstat_ptracer01_mean       =   1.5821337454309E+00
(PID.TID 0000.0001) %MON trcstat_ptracer01_sd         =   4.6735065681380E-01
(PID.TID 0000.0001) %MON trcstat_ptracer01_del2       =   0.0000000000000E+00
(PID.TID 0000.0001) %MON trcstat_ptracer02_max        =   3.3903499603271E+01
(PID.TID 0000.0001) %MON trcstat_ptracer02_min        =   4.6300001442432E-02
(PID.TID 0000.0001) %MON trcstat_ptracer02_mean       =   2.3502389802218E+01
(PID.TID 0000.0001) %MON trcstat_ptracer02_sd         =   7.8162030599381E+00
(PID.TID 0000.0001) %MON trcstat_ptracer02_del2       =   0.0000000000000E+00
(PID.TID 0000.0001) %MON trcstat_ptracer03_max        =   1.3000000035390E-03
(PID.TID 0000.0001) %MON trcstat_ptracer03_min        =   1.3000000035390E-03
(PID.TID 0000.0001) %MON trcstat_ptracer03_mean       =   1.3000000035390E-03
(PID.TID 0000.0001) %MON trcstat_ptracer03_sd         =   0.0000000000000E+00
(PID.TID 0000.0001) %MON trcstat_ptracer03_del2       =   0.0000000000000E+00
(PID.TID 0000.0001) %MON trcstat_ptracer04_max        =   3.9387401580811E+01
(PID.TID 0000.0001) %MON trcstat_ptracer04_min        =   1.2247999906540E+00
(PID.TID 0000.0001) %MON trcstat_ptracer04_mean       =   2.9621888811155E+01
(PID.TID 0000.0001) %MON trcstat_ptracer04_sd         =   1.1270588565469E+01
(PID.TID 0000.0001) %MON trcstat_ptracer04_del2       =   0.0000000000000E+00
(PID.TID 0000.0001) %MON trcstat_ptracer05_max        =   5.1134419627488E-03
(PID.TID 0000.0001) %MON trcstat_ptracer05_min        =   0.0000000000000E+00
(PID.TID 0000.0001) %MON trcstat_ptracer05_mean       =   2.1473529209187E-04
(PID.TID 0000.0001) %MON trcstat_ptracer05_sd         =   9.2442155098050E-04
(PID.TID 0000.0001) %MON trcstat_ptracer05_del2       =   0.0000000000000E+00
(PID.TID 0000.0001) %MON trcstat_ptracer06_max        =   8.1815071403980E-02
(PID.TID 0000.0001) %MON trcstat_ptracer06_min        =   0.0000000000000E+00
(PID.TID 0000.0001) %MON trcstat_ptracer06_mean       =   3.4357646734700E-03
(PID.TID 0000.0001) %MON trcstat_ptracer06_sd         =   1.4790744815688E-02
(PID.TID 0000.0001) %MON trcstat_ptracer06_del2       =   0.0000000000000E+00
(PID.TID 0000.0001) %MON trcstat_ptracer07_max        =   5.1134416025889E-06
(PID.TID 0000.0001) %MON trcstat_ptracer07_min        =   0.0000000000000E+00
(PID.TID 0000.0001) %MON trcstat_ptracer07_mean       =   2.1473529239838E-07
(PID.TID 0000.0001) %MON trcstat_ptracer07_sd         =   9.2442155063872E-07
(PID.TID 0000.0001) %MON trcstat_ptracer07_del2       =   0.0000000000000E+00
(PID.TID 0000.0001) %MON trcstat_ptracer08_max        =   1.0360708957435E-09
(PID.TID 0000.0001) %MON trcstat_ptracer08_min        =   0.0000000000000E+00
(PID.TID 0000.0001) %MON trcstat_ptracer08_mean       =   1.3701999921416E-10
(PID.TID 0000.0001) %MON trcstat_ptracer08_sd         =   2.5061738948910E-10
(PID.TID 0000.0001) %MON trcstat_ptracer08_del2       =   0.0000000000000E+00
(PID.TID 0000.0001) %MON trcstat_ptracer09_max        =   1.6577134331897E-08
(PID.TID 0000.0001) %MON trcstat_ptracer09_min        =   0.0000000000000E+00
(PID.TID 0000.0001) %MON trcstat_ptracer09_mean       =   2.1923199874266E-09
(PID.TID 0000.0001) %MON trcstat_ptracer09_sd         =   4.0098782318255E-09
(PID.TID 0000.0001) %MON trcstat_ptracer09_del2       =   0.0000000000000E+00
(PID.TID 0000.0001) %MON trcstat_ptracer10_max        =   1.0360708601817E-12
(PID.TID 0000.0001) %MON trcstat_ptracer10_min        =   0.0000000000000E+00
(PID.TID 0000.0001) %MON trcstat_ptracer10_mean       =   1.3701999017052E-13
(PID.TID 0000.0001) %MON trcstat_ptracer10_sd         =   2.5061737519455E-13
(PID.TID 0000.0001) %MON trcstat_ptracer10_del2       =   0.0000000000000E+00
(PID.TID 0000.0001) %MON trcstat_ptracer11_max        =   4.2543990552701E-09
(PID.TID 0000.0001) %MON trcstat_ptracer11_min        =   0.0000000000000E+00
(PID.TID 0000.0001) %MON trcstat_ptracer11_mean       =   5.1571246209822E-10
(PID.TID 0000.0001) %MON trcstat_ptracer11_sd         =   1.0378771735623E-09
(PID.TID 0000.0001) %MON trcstat_ptracer11_del2       =   0.0000000000000E+00
(PID.TID 0000.0001) %MON trcstat_ptracer12_max        =   1.0360708957435E-09
(PID.TID 0000.0001) %MON trcstat_ptracer12_min        =   0.0000000000000E+00
(PID.TID 0000.0001) %MON trcstat_ptracer12_mean       =   1.3701999921416E-10
(PID.TID 0000.0001) %MON trcstat_ptracer12_sd         =   2.5061738948910E-10
(PID.TID 0000.0001) %MON trcstat_ptracer12_del2       =   0.0000000000000E+00
(PID.TID 0000.0001) %MON trcstat_ptracer13_max        =   1.6577134331897E-08
(PID.TID 0000.0001) %MON trcstat_ptracer13_min        =   0.0000000000000E+00
(PID.TID 0000.0001) %MON trcstat_ptracer13_mean       =   2.1923199874266E-09
(PID.TID 0000.0001) %MON trcstat_ptracer13_sd         =   4.0098782318255E-09
(PID.TID 0000.0001) %MON trcstat_ptracer13_del2       =   0.0000000000000E+00
(PID.TID 0000.0001) %MON trcstat_ptracer14_max        =   1.0360708601817E-12
(PID.TID 0000.0001) %MON trcstat_ptracer14_min        =   0.0000000000000E+00
(PID.TID 0000.0001) %MON trcstat_ptracer14_mean       =   1.3701999017052E-13
(PID.TID 0000.0001) %MON trcstat_ptracer14_sd         =   2.5061737519455E-13
(PID.TID 0000.0001) %MON trcstat_ptracer14_del2       =   0.0000000000000E+00
(PID.TID 0000.0001) %MON trcstat_ptracer15_max        =   4.2543990552701E-09
(PID.TID 0000.0001) %MON trcstat_ptracer15_min        =   0.0000000000000E+00
(PID.TID 0000.0001) %MON trcstat_ptracer15_mean       =   5.1571246209822E-10
(PID.TID 0000.0001) %MON trcstat_ptracer15_sd         =   1.0378771735623E-09
(PID.TID 0000.0001) %MON trcstat_ptracer15_del2       =   0.0000000000000E+00
(PID.TID 0000.0001) %MON trcstat_ptracer16_max        =   2.7246939134784E-04
(PID.TID 0000.0001) %MON trcstat_ptracer16_min        =   1.1728604931704E-06
(PID.TID 0000.0001) %MON trcstat_ptracer16_mean       =   7.8931833963575E-05
(PID.TID 0000.0001) %MON trcstat_ptracer16_sd         =   9.6634603938663E-05
(PID.TID 0000.0001) %MON trcstat_ptracer16_del2       =   0.0000000000000E+00
(PID.TID 0000.0001) %MON trcstat_ptracer17_max        =   4.3595102615654E-03
(PID.TID 0000.0001) %MON trcstat_ptracer17_min        =   1.8765767890727E-05
(PID.TID 0000.0001) %MON trcstat_ptracer17_mean       =   1.2629093434172E-03
(PID.TID 0000.0001) %MON trcstat_ptracer17_sd         =   1.5461536630186E-03
(PID.TID 0000.0001) %MON trcstat_ptracer17_del2       =   0.0000000000000E+00
(PID.TID 0000.0001) %MON trcstat_ptracer18_max        =   2.7246940703662E-07
(PID.TID 0000.0001) %MON trcstat_ptracer18_min        =   1.1728603643846E-09
(PID.TID 0000.0001) %MON trcstat_ptracer18_mean       =   7.8931834490195E-08
(PID.TID 0000.0001) %MON trcstat_ptracer18_sd         =   9.6634605997273E-08
(PID.TID 0000.0001) %MON trcstat_ptracer18_del2       =   0.0000000000000E+00
(PID.TID 0000.0001) %MON trcstat_ptracer19_max        =   1.6253039240837E-02
(PID.TID 0000.0001) %MON trcstat_ptracer19_min        =   1.1382005177438E-03
(PID.TID 0000.0001) %MON trcstat_ptracer19_mean       =   5.4894673427532E-03
(PID.TID 0000.0001) %MON trcstat_ptracer19_sd         =   5.1731692661236E-03
(PID.TID 0000.0001) %MON trcstat_ptracer19_del2       =   0.0000000000000E+00
(PID.TID 0000.0001) %MON trcstat_ptracer20_max        =   2.5584036484361E-02
(PID.TID 0000.0001) %MON trcstat_ptracer20_min        =   1.8763074649542E-07
(PID.TID 0000.0001) %MON trcstat_ptracer20_mean       =   6.0352662496819E-04
(PID.TID 0000.0001) %MON trcstat_ptracer20_sd         =   3.2425361014468E-03
(PID.TID 0000.0001) %MON trcstat_ptracer20_del2       =   0.0000000000000E+00
(PID.TID 0000.0001) %MON trcstat_ptracer21_max        =   1.8258459866047E-02
(PID.TID 0000.0001) %MON trcstat_ptracer21_min        =   3.8796779335826E-06
(PID.TID 0000.0001) %MON trcstat_ptracer21_mean       =   6.0474443227462E-04
(PID.TID 0000.0001) %MON trcstat_ptracer21_sd         =   1.9428680890593E-03
(PID.TID 0000.0001) %MON trcstat_ptracer21_del2       =   0.0000000000000E+00
(PID.TID 0000.0001) %MON trcstat_ptracer22_max        =   7.3461555984977E-06
(PID.TID 0000.0001) %MON trcstat_ptracer22_min        =   0.0000000000000E+00
(PID.TID 0000.0001) %MON trcstat_ptracer22_mean       =   2.1904083196854E-07
(PID.TID 0000.0001) %MON trcstat_ptracer22_sd         =   1.1483912396179E-06
(PID.TID 0000.0001) %MON trcstat_ptracer22_del2       =   0.0000000000000E+00
(PID.TID 0000.0001) %MON trcstat_ptracer23_max        =   7.3461555984977E-06
(PID.TID 0000.0001) %MON trcstat_ptracer23_min        =   0.0000000000000E+00
(PID.TID 0000.0001) %MON trcstat_ptracer23_mean       =   2.1904083196854E-07
(PID.TID 0000.0001) %MON trcstat_ptracer23_sd         =   1.1483912396179E-06
(PID.TID 0000.0001) %MON trcstat_ptracer23_del2       =   0.0000000000000E+00
(PID.TID 0000.0001) %MON trcstat_ptracer24_max        =   7.3461555984977E-06
(PID.TID 0000.0001) %MON trcstat_ptracer24_min        =   0.0000000000000E+00
(PID.TID 0000.0001) %MON trcstat_ptracer24_mean       =   2.1904083196854E-07
(PID.TID 0000.0001) %MON trcstat_ptracer24_sd         =   1.1483912396179E-06
(PID.TID 0000.0001) %MON trcstat_ptracer24_del2       =   0.0000000000000E+00
(PID.TID 0000.0001) %MON trcstat_ptracer25_max        =   7.3461555984977E-06
(PID.TID 0000.0001) %MON trcstat_ptracer25_min        =   0.0000000000000E+00
(PID.TID 0000.0001) %MON trcstat_ptracer25_mean       =   2.1904083196854E-07
(PID.TID 0000.0001) %MON trcstat_ptracer25_sd         =   1.1483912396179E-06
(PID.TID 0000.0001) %MON trcstat_ptracer25_del2       =   0.0000000000000E+00
(PID.TID 0000.0001) %MON trcstat_ptracer26_max        =   7.3461555984977E-06
(PID.TID 0000.0001) %MON trcstat_ptracer26_min        =   0.0000000000000E+00
(PID.TID 0000.0001) %MON trcstat_ptracer26_mean       =   2.1904083196854E-07
(PID.TID 0000.0001) %MON trcstat_ptracer26_sd         =   1.1483912396179E-06
(PID.TID 0000.0001) %MON trcstat_ptracer26_del2       =   0.0000000000000E+00
(PID.TID 0000.0001) %MON trcstat_ptracer27_max        =   7.3461555984977E-06
(PID.TID 0000.0001) %MON trcstat_ptracer27_min        =   0.0000000000000E+00
(PID.TID 0000.0001) %MON trcstat_ptracer27_mean       =   2.1904083196854E-07
(PID.TID 0000.0001) %MON trcstat_ptracer27_sd         =   1.1483912396179E-06
(PID.TID 0000.0001) %MON trcstat_ptracer27_del2       =   0.0000000000000E+00
(PID.TID 0000.0001) %MON trcstat_ptracer28_max        =   7.3461555984977E-06
(PID.TID 0000.0001) %MON trcstat_ptracer28_min        =   0.0000000000000E+00
(PID.TID 0000.0001) %MON trcstat_ptracer28_mean       =   2.1904083196854E-07
(PID.TID 0000.0001) %MON trcstat_ptracer28_sd         =   1.1483912396179E-06
(PID.TID 0000.0001) %MON trcstat_ptracer28_del2       =   0.0000000000000E+00
(PID.TID 0000.0001) %MON trcstat_ptracer29_max        =   7.3461555984977E-06
(PID.TID 0000.0001) %MON trcstat_ptracer29_min        =   0.0000000000000E+00
(PID.TID 0000.0001) %MON trcstat_ptracer29_mean       =   2.1904083196854E-07
(PID.TID 0000.0001) %MON trcstat_ptracer29_sd         =   1.1483912396179E-06
(PID.TID 0000.0001) %MON trcstat_ptracer29_del2       =   0.0000000000000E+00
(PID.TID 0000.0001) %MON trcstat_ptracer30_max        =   7.3461555984977E-06
(PID.TID 0000.0001) %MON trcstat_ptracer30_min        =   0.0000000000000E+00
(PID.TID 0000.0001) %MON trcstat_ptracer30_mean       =   2.1904083196854E-07
(PID.TID 0000.0001) %MON trcstat_ptracer30_sd         =   1.1483912396179E-06
(PID.TID 0000.0001) %MON trcstat_ptracer30_del2       =   0.0000000000000E+00
(PID.TID 0000.0001) %MON trcstat_ptracer31_max        =   7.3461555984977E-06
(PID.TID 0000.0001) %MON trcstat_ptracer31_min        =   0.0000000000000E+00
(PID.TID 0000.0001) %MON trcstat_ptracer31_mean       =   2.1904083196854E-07
(PID.TID 0000.0001) %MON trcstat_ptracer31_sd         =   1.1483912396179E-06
(PID.TID 0000.0001) %MON trcstat_ptracer31_del2       =   0.0000000000000E+00
(PID.TID 0000.0001) %MON trcstat_ptracer32_max        =   7.3461555984977E-06
(PID.TID 0000.0001) %MON trcstat_ptracer32_min        =   0.0000000000000E+00
(PID.TID 0000.0001) %MON trcstat_ptracer32_mean       =   2.1904083196854E-07
(PID.TID 0000.0001) %MON trcstat_ptracer32_sd         =   1.1483912396179E-06
(PID.TID 0000.0001) %MON trcstat_ptracer32_del2       =   0.0000000000000E+00
(PID.TID 0000.0001) %MON trcstat_ptracer33_max        =   7.3461555984977E-06
(PID.TID 0000.0001) %MON trcstat_ptracer33_min        =   0.0000000000000E+00
(PID.TID 0000.0001) %MON trcstat_ptracer33_mean       =   2.1904083196854E-07
(PID.TID 0000.0001) %MON trcstat_ptracer33_sd         =   1.1483912396179E-06
(PID.TID 0000.0001) %MON trcstat_ptracer33_del2       =   0.0000000000000E+00
(PID.TID 0000.0001) %MON trcstat_ptracer34_max        =   7.3461555984977E-06
(PID.TID 0000.0001) %MON trcstat_ptracer34_min        =   0.0000000000000E+00
(PID.TID 0000.0001) %MON trcstat_ptracer34_mean       =   2.1904083196854E-07
(PID.TID 0000.0001) %MON trcstat_ptracer34_sd         =   1.1483912396179E-06
(PID.TID 0000.0001) %MON trcstat_ptracer34_del2       =   0.0000000000000E+00
(PID.TID 0000.0001) %MON trcstat_ptracer35_max        =   7.3461555984977E-06
(PID.TID 0000.0001) %MON trcstat_ptracer35_min        =   0.0000000000000E+00
(PID.TID 0000.0001) %MON trcstat_ptracer35_mean       =   2.1904083196854E-07
(PID.TID 0000.0001) %MON trcstat_ptracer35_sd         =   1.1483912396179E-06
(PID.TID 0000.0001) %MON trcstat_ptracer35_del2       =   0.0000000000000E+00
(PID.TID 0000.0001) %MON trcstat_ptracer36_max        =   7.3461555984977E-06
(PID.TID 0000.0001) %MON trcstat_ptracer36_min        =   0.0000000000000E+00
(PID.TID 0000.0001) %MON trcstat_ptracer36_mean       =   2.1904083196854E-07
(PID.TID 0000.0001) %MON trcstat_ptracer36_sd         =   1.1483912396179E-06
(PID.TID 0000.0001) %MON trcstat_ptracer36_del2       =   0.0000000000000E+00
(PID.TID 0000.0001) %MON trcstat_ptracer37_max        =   7.3461555984977E-06
(PID.TID 0000.0001) %MON trcstat_ptracer37_min        =   0.0000000000000E+00
(PID.TID 0000.0001) %MON trcstat_ptracer37_mean       =   2.1904083196854E-07
(PID.TID 0000.0001) %MON trcstat_ptracer37_sd         =   1.1483912396179E-06
(PID.TID 0000.0001) %MON trcstat_ptracer37_del2       =   0.0000000000000E+00
(PID.TID 0000.0001) %MON trcstat_ptracer38_max        =   7.3461555984977E-06
(PID.TID 0000.0001) %MON trcstat_ptracer38_min        =   0.0000000000000E+00
(PID.TID 0000.0001) %MON trcstat_ptracer38_mean       =   2.1904083196854E-07
(PID.TID 0000.0001) %MON trcstat_ptracer38_sd         =   1.1483912396179E-06
(PID.TID 0000.0001) %MON trcstat_ptracer38_del2       =   0.0000000000000E+00
(PID.TID 0000.0001) %MON trcstat_ptracer39_max        =   7.3461555984977E-06
(PID.TID 0000.0001) %MON trcstat_ptracer39_min        =   0.0000000000000E+00
(PID.TID 0000.0001) %MON trcstat_ptracer39_mean       =   2.1904083196854E-07
(PID.TID 0000.0001) %MON trcstat_ptracer39_sd         =   1.1483912396179E-06
(PID.TID 0000.0001) %MON trcstat_ptracer39_del2       =   0.0000000000000E+00
(PID.TID 0000.0001) %MON trcstat_ptracer40_max        =   7.3461555984977E-06
(PID.TID 0000.0001) %MON trcstat_ptracer40_min        =   0.0000000000000E+00
(PID.TID 0000.0001) %MON trcstat_ptracer40_mean       =   2.1904083196854E-07
(PID.TID 0000.0001) %MON trcstat_ptracer40_sd         =   1.1483912396179E-06
(PID.TID 0000.0001) %MON trcstat_ptracer40_del2       =   0.0000000000000E+00
(PID.TID 0000.0001) %MON trcstat_ptracer41_max        =   7.3461555984977E-06
(PID.TID 0000.0001) %MON trcstat_ptracer41_min        =   0.0000000000000E+00
(PID.TID 0000.0001) %MON trcstat_ptracer41_mean       =   2.1904083196854E-07
(PID.TID 0000.0001) %MON trcstat_ptracer41_sd         =   1.1483912396179E-06
(PID.TID 0000.0001) %MON trcstat_ptracer41_del2       =   0.0000000000000E+00
(PID.TID 0000.0001) %MON trcstat_ptracer42_max        =   7.3461555984977E-06
(PID.TID 0000.0001) %MON trcstat_ptracer42_min        =   0.0000000000000E+00
(PID.TID 0000.0001) %MON trcstat_ptracer42_mean       =   2.1904083196854E-07
(PID.TID 0000.0001) %MON trcstat_ptracer42_sd         =   1.1483912396179E-06
(PID.TID 0000.0001) %MON trcstat_ptracer42_del2       =   0.0000000000000E+00
(PID.TID 0000.0001) %MON trcstat_ptracer43_max        =   7.3461555984977E-06
(PID.TID 0000.0001) %MON trcstat_ptracer43_min        =   0.0000000000000E+00
(PID.TID 0000.0001) %MON trcstat_ptracer43_mean       =   2.1904083196854E-07
(PID.TID 0000.0001) %MON trcstat_ptracer43_sd         =   1.1483912396179E-06
(PID.TID 0000.0001) %MON trcstat_ptracer43_del2       =   0.0000000000000E+00
(PID.TID 0000.0001) %MON trcstat_ptracer44_max        =   7.3461555984977E-06
(PID.TID 0000.0001) %MON trcstat_ptracer44_min        =   0.0000000000000E+00
(PID.TID 0000.0001) %MON trcstat_ptracer44_mean       =   2.1904083196854E-07
(PID.TID 0000.0001) %MON trcstat_ptracer44_sd         =   1.1483912396179E-06
(PID.TID 0000.0001) %MON trcstat_ptracer44_del2       =   0.0000000000000E+00
(PID.TID 0000.0001) %MON trcstat_ptracer45_max        =   7.3461555984977E-06
(PID.TID 0000.0001) %MON trcstat_ptracer45_min        =   0.0000000000000E+00
(PID.TID 0000.0001) %MON trcstat_ptracer45_mean       =   2.1904083196854E-07
(PID.TID 0000.0001) %MON trcstat_ptracer45_sd         =   1.1483912396179E-06
(PID.TID 0000.0001) %MON trcstat_ptracer45_del2       =   0.0000000000000E+00
(PID.TID 0000.0001) %MON trcstat_ptracer46_max        =   7.3461555984977E-06
(PID.TID 0000.0001) %MON trcstat_ptracer46_min        =   0.0000000000000E+00
(PID.TID 0000.0001) %MON trcstat_ptracer46_mean       =   2.1904083196854E-07
(PID.TID 0000.0001) %MON trcstat_ptracer46_sd         =   1.1483912396179E-06
(PID.TID 0000.0001) %MON trcstat_ptracer46_del2       =   0.0000000000000E+00
(PID.TID 0000.0001) %MON trcstat_ptracer47_max        =   7.3461555984977E-06
(PID.TID 0000.0001) %MON trcstat_ptracer47_min        =   0.0000000000000E+00
(PID.TID 0000.0001) %MON trcstat_ptracer47_mean       =   2.1904083196854E-07
(PID.TID 0000.0001) %MON trcstat_ptracer47_sd         =   1.1483912396179E-06
(PID.TID 0000.0001) %MON trcstat_ptracer47_del2       =   0.0000000000000E+00
(PID.TID 0000.0001) %MON trcstat_ptracer48_max        =   7.3461555984977E-06
(PID.TID 0000.0001) %MON trcstat_ptracer48_min        =   0.0000000000000E+00
(PID.TID 0000.0001) %MON trcstat_ptracer48_mean       =   2.1904083196854E-07
(PID.TID 0000.0001) %MON trcstat_ptracer48_sd         =   1.1483912396179E-06
(PID.TID 0000.0001) %MON trcstat_ptracer48_del2       =   0.0000000000000E+00
(PID.TID 0000.0001) %MON trcstat_ptracer49_max        =   7.3461555984977E-06
(PID.TID 0000.0001) %MON trcstat_ptracer49_min        =   0.0000000000000E+00
(PID.TID 0000.0001) %MON trcstat_ptracer49_mean       =   2.1904083196854E-07
(PID.TID 0000.0001) %MON trcstat_ptracer49_sd         =   1.1483912396179E-06
(PID.TID 0000.0001) %MON trcstat_ptracer49_del2       =   0.0000000000000E+00
(PID.TID 0000.0001) %MON trcstat_ptracer50_max        =   7.3461555984977E-06
(PID.TID 0000.0001) %MON trcstat_ptracer50_min        =   0.0000000000000E+00
(PID.TID 0000.0001) %MON trcstat_ptracer50_mean       =   2.1904083196854E-07
(PID.TID 0000.0001) %MON trcstat_ptracer50_sd         =   1.1483912396179E-06
(PID.TID 0000.0001) %MON trcstat_ptracer50_del2       =   0.0000000000000E+00
(PID.TID 0000.0001) %MON trcstat_ptracer51_max        =   7.3461555984977E-06
(PID.TID 0000.0001) %MON trcstat_ptracer51_min        =   0.0000000000000E+00
(PID.TID 0000.0001) %MON trcstat_ptracer51_mean       =   2.1904083196854E-07
(PID.TID 0000.0001) %MON trcstat_ptracer51_sd         =   1.1483912396179E-06
(PID.TID 0000.0001) %MON trcstat_ptracer51_del2       =   0.0000000000000E+00
(PID.TID 0000.0001) %MON trcstat_ptracer52_max        =   7.3461555984977E-06
(PID.TID 0000.0001) %MON trcstat_ptracer52_min        =   0.0000000000000E+00
(PID.TID 0000.0001) %MON trcstat_ptracer52_mean       =   2.1904083196854E-07
(PID.TID 0000.0001) %MON trcstat_ptracer52_sd         =   1.1483912396179E-06
(PID.TID 0000.0001) %MON trcstat_ptracer52_del2       =   0.0000000000000E+00
(PID.TID 0000.0001) %MON trcstat_ptracer53_max        =   7.3461555984977E-06
(PID.TID 0000.0001) %MON trcstat_ptracer53_min        =   0.0000000000000E+00
(PID.TID 0000.0001) %MON trcstat_ptracer53_mean       =   2.1904083196854E-07
(PID.TID 0000.0001) %MON trcstat_ptracer53_sd         =   1.1483912396179E-06
(PID.TID 0000.0001) %MON trcstat_ptracer53_del2       =   0.0000000000000E+00
(PID.TID 0000.0001) %MON trcstat_ptracer54_max        =   7.3461555984977E-06
(PID.TID 0000.0001) %MON trcstat_ptracer54_min        =   0.0000000000000E+00
(PID.TID 0000.0001) %MON trcstat_ptracer54_mean       =   2.1904083196854E-07
(PID.TID 0000.0001) %MON trcstat_ptracer54_sd         =   1.1483912396179E-06
(PID.TID 0000.0001) %MON trcstat_ptracer54_del2       =   0.0000000000000E+00
(PID.TID 0000.0001) %MON trcstat_ptracer55_max        =   7.3461555984977E-06
(PID.TID 0000.0001) %MON trcstat_ptracer55_min        =   0.0000000000000E+00
(PID.TID 0000.0001) %MON trcstat_ptracer55_mean       =   2.1904083196854E-07
(PID.TID 0000.0001) %MON trcstat_ptracer55_sd         =   1.1483912396179E-06
(PID.TID 0000.0001) %MON trcstat_ptracer55_del2       =   0.0000000000000E+00
(PID.TID 0000.0001) %MON trcstat_ptracer56_max        =   7.3461555984977E-06
(PID.TID 0000.0001) %MON trcstat_ptracer56_min        =   0.0000000000000E+00
(PID.TID 0000.0001) %MON trcstat_ptracer56_mean       =   2.1904083196854E-07
(PID.TID 0000.0001) %MON trcstat_ptracer56_sd         =   1.1483912396179E-06
(PID.TID 0000.0001) %MON trcstat_ptracer56_del2       =   0.0000000000000E+00
(PID.TID 0000.0001) %MON trcstat_ptracer57_max        =   7.3461555984977E-06
(PID.TID 0000.0001) %MON trcstat_ptracer57_min        =   0.0000000000000E+00
(PID.TID 0000.0001) %MON trcstat_ptracer57_mean       =   2.1904083196854E-07
(PID.TID 0000.0001) %MON trcstat_ptracer57_sd         =   1.1483912396179E-06
(PID.TID 0000.0001) %MON trcstat_ptracer57_del2       =   0.0000000000000E+00
(PID.TID 0000.0001) %MON trcstat_ptracer58_max        =   7.3461555984977E-06
(PID.TID 0000.0001) %MON trcstat_ptracer58_min        =   0.0000000000000E+00
(PID.TID 0000.0001) %MON trcstat_ptracer58_mean       =   2.1904083196854E-07
(PID.TID 0000.0001) %MON trcstat_ptracer58_sd         =   1.1483912396179E-06
(PID.TID 0000.0001) %MON trcstat_ptracer58_del2       =   0.0000000000000E+00
(PID.TID 0000.0001) %MON trcstat_ptracer59_max        =   7.3461555984977E-06
(PID.TID 0000.0001) %MON trcstat_ptracer59_min        =   0.0000000000000E+00
(PID.TID 0000.0001) %MON trcstat_ptracer59_mean       =   2.1904083196854E-07
(PID.TID 0000.0001) %MON trcstat_ptracer59_sd         =   1.1483912396179E-06
(PID.TID 0000.0001) %MON trcstat_ptracer59_del2       =   0.0000000000000E+00
(PID.TID 0000.0001) %MON trcstat_ptracer60_max        =   7.3461555984977E-06
(PID.TID 0000.0001) %MON trcstat_ptracer60_min        =   0.0000000000000E+00
(PID.TID 0000.0001) %MON trcstat_ptracer60_mean       =   2.1904083196854E-07
(PID.TID 0000.0001) %MON trcstat_ptracer60_sd         =   1.1483912396179E-06
(PID.TID 0000.0001) %MON trcstat_ptracer60_del2       =   0.0000000000000E+00
(PID.TID 0000.0001) %MON trcstat_ptracer61_max        =   7.3461555984977E-06
(PID.TID 0000.0001) %MON trcstat_ptracer61_min        =   0.0000000000000E+00
(PID.TID 0000.0001) %MON trcstat_ptracer61_mean       =   2.1904083196854E-07
(PID.TID 0000.0001) %MON trcstat_ptracer61_sd         =   1.1483912396179E-06
(PID.TID 0000.0001) %MON trcstat_ptracer61_del2       =   0.0000000000000E+00
(PID.TID 0000.0001) %MON trcstat_ptracer62_max        =   7.3461555984977E-06
(PID.TID 0000.0001) %MON trcstat_ptracer62_min        =   0.0000000000000E+00
(PID.TID 0000.0001) %MON trcstat_ptracer62_mean       =   2.1904083196854E-07
(PID.TID 0000.0001) %MON trcstat_ptracer62_sd         =   1.1483912396179E-06
(PID.TID 0000.0001) %MON trcstat_ptracer62_del2       =   0.0000000000000E+00
(PID.TID 0000.0001) %MON trcstat_ptracer63_max        =   7.3461555984977E-06
(PID.TID 0000.0001) %MON trcstat_ptracer63_min        =   0.0000000000000E+00
(PID.TID 0000.0001) %MON trcstat_ptracer63_mean       =   2.1904083196854E-07
(PID.TID 0000.0001) %MON trcstat_ptracer63_sd         =   1.1483912396179E-06
(PID.TID 0000.0001) %MON trcstat_ptracer63_del2       =   0.0000000000000E+00
(PID.TID 0000.0001) %MON trcstat_ptracer64_max        =   7.3461555984977E-06
(PID.TID 0000.0001) %MON trcstat_ptracer64_min        =   0.0000000000000E+00
(PID.TID 0000.0001) %MON trcstat_ptracer64_mean       =   2.1904083196854E-07
(PID.TID 0000.0001) %MON trcstat_ptracer64_sd         =   1.1483912396179E-06
(PID.TID 0000.0001) %MON trcstat_ptracer64_del2       =   0.0000000000000E+00
(PID.TID 0000.0001) %MON trcstat_ptracer65_max        =   7.3461555984977E-06
(PID.TID 0000.0001) %MON trcstat_ptracer65_min        =   0.0000000000000E+00
(PID.TID 0000.0001) %MON trcstat_ptracer65_mean       =   2.1904083196854E-07
(PID.TID 0000.0001) %MON trcstat_ptracer65_sd         =   1.1483912396179E-06
(PID.TID 0000.0001) %MON trcstat_ptracer65_del2       =   0.0000000000000E+00
(PID.TID 0000.0001) %MON trcstat_ptracer66_max        =   7.3461555984977E-06
(PID.TID 0000.0001) %MON trcstat_ptracer66_min        =   0.0000000000000E+00
(PID.TID 0000.0001) %MON trcstat_ptracer66_mean       =   2.1904083196854E-07
(PID.TID 0000.0001) %MON trcstat_ptracer66_sd         =   1.1483912396179E-06
(PID.TID 0000.0001) %MON trcstat_ptracer66_del2       =   0.0000000000000E+00
(PID.TID 0000.0001) %MON trcstat_ptracer67_max        =   7.3461555984977E-06
(PID.TID 0000.0001) %MON trcstat_ptracer67_min        =   0.0000000000000E+00
(PID.TID 0000.0001) %MON trcstat_ptracer67_mean       =   2.1904083196854E-07
(PID.TID 0000.0001) %MON trcstat_ptracer67_sd         =   1.1483912396179E-06
(PID.TID 0000.0001) %MON trcstat_ptracer67_del2       =   0.0000000000000E+00
(PID.TID 0000.0001) %MON trcstat_ptracer68_max        =   7.3461555984977E-06
(PID.TID 0000.0001) %MON trcstat_ptracer68_min        =   0.0000000000000E+00
(PID.TID 0000.0001) %MON trcstat_ptracer68_mean       =   2.1904083196854E-07
(PID.TID 0000.0001) %MON trcstat_ptracer68_sd         =   1.1483912396179E-06
(PID.TID 0000.0001) %MON trcstat_ptracer68_del2       =   0.0000000000000E+00
(PID.TID 0000.0001) %MON trcstat_ptracer69_max        =   7.3461555984977E-06
(PID.TID 0000.0001) %MON trcstat_ptracer69_min        =   0.0000000000000E+00
(PID.TID 0000.0001) %MON trcstat_ptracer69_mean       =   2.1904083196854E-07
(PID.TID 0000.0001) %MON trcstat_ptracer69_sd         =   1.1483912396179E-06
(PID.TID 0000.0001) %MON trcstat_ptracer69_del2       =   0.0000000000000E+00
(PID.TID 0000.0001) %MON trcstat_ptracer70_max        =   7.3461555984977E-06
(PID.TID 0000.0001) %MON trcstat_ptracer70_min        =   0.0000000000000E+00
(PID.TID 0000.0001) %MON trcstat_ptracer70_mean       =   2.1904083196854E-07
(PID.TID 0000.0001) %MON trcstat_ptracer70_sd         =   1.1483912396179E-06
(PID.TID 0000.0001) %MON trcstat_ptracer70_del2       =   0.0000000000000E+00
(PID.TID 0000.0001) %MON trcstat_ptracer71_max        =   7.3461555984977E-06
(PID.TID 0000.0001) %MON trcstat_ptracer71_min        =   0.0000000000000E+00
(PID.TID 0000.0001) %MON trcstat_ptracer71_mean       =   2.1904083196854E-07
(PID.TID 0000.0001) %MON trcstat_ptracer71_sd         =   1.1483912396179E-06
(PID.TID 0000.0001) %MON trcstat_ptracer71_del2       =   0.0000000000000E+00
(PID.TID 0000.0001) %MON trcstat_ptracer72_max        =   7.3461555984977E-06
(PID.TID 0000.0001) %MON trcstat_ptracer72_min        =   0.0000000000000E+00
(PID.TID 0000.0001) %MON trcstat_ptracer72_mean       =   2.1904083196854E-07
(PID.TID 0000.0001) %MON trcstat_ptracer72_sd         =   1.1483912396179E-06
(PID.TID 0000.0001) %MON trcstat_ptracer72_del2       =   0.0000000000000E+00
(PID.TID 0000.0001) %MON trcstat_ptracer73_max        =   7.3461555984977E-06
(PID.TID 0000.0001) %MON trcstat_ptracer73_min        =   0.0000000000000E+00
(PID.TID 0000.0001) %MON trcstat_ptracer73_mean       =   2.1904083196854E-07
(PID.TID 0000.0001) %MON trcstat_ptracer73_sd         =   1.1483912396179E-06
(PID.TID 0000.0001) %MON trcstat_ptracer73_del2       =   0.0000000000000E+00
(PID.TID 0000.0001) %MON trcstat_ptracer74_max        =   7.3461555984977E-06
(PID.TID 0000.0001) %MON trcstat_ptracer74_min        =   0.0000000000000E+00
(PID.TID 0000.0001) %MON trcstat_ptracer74_mean       =   2.1904083196854E-07
(PID.TID 0000.0001) %MON trcstat_ptracer74_sd         =   1.1483912396179E-06
(PID.TID 0000.0001) %MON trcstat_ptracer74_del2       =   0.0000000000000E+00
(PID.TID 0000.0001) %MON trcstat_ptracer75_max        =   7.3461555984977E-06
(PID.TID 0000.0001) %MON trcstat_ptracer75_min        =   0.0000000000000E+00
(PID.TID 0000.0001) %MON trcstat_ptracer75_mean       =   2.1904083196854E-07
(PID.TID 0000.0001) %MON trcstat_ptracer75_sd         =   1.1483912396179E-06
(PID.TID 0000.0001) %MON trcstat_ptracer75_del2       =   0.0000000000000E+00
(PID.TID 0000.0001) %MON trcstat_ptracer76_max        =   7.3461555984977E-06
(PID.TID 0000.0001) %MON trcstat_ptracer76_min        =   0.0000000000000E+00
(PID.TID 0000.0001) %MON trcstat_ptracer76_mean       =   2.1904083196854E-07
(PID.TID 0000.0001) %MON trcstat_ptracer76_sd         =   1.1483912396179E-06
(PID.TID 0000.0001) %MON trcstat_ptracer76_del2       =   0.0000000000000E+00
(PID.TID 0000.0001) %MON trcstat_ptracer77_max        =   7.3461555984977E-06
(PID.TID 0000.0001) %MON trcstat_ptracer77_min        =   0.0000000000000E+00
(PID.TID 0000.0001) %MON trcstat_ptracer77_mean       =   2.1904083196854E-07
(PID.TID 0000.0001) %MON trcstat_ptracer77_sd         =   1.1483912396179E-06
(PID.TID 0000.0001) %MON trcstat_ptracer77_del2       =   0.0000000000000E+00
(PID.TID 0000.0001) %MON trcstat_ptracer78_max        =   7.3461555984977E-06
(PID.TID 0000.0001) %MON trcstat_ptracer78_min        =   0.0000000000000E+00
(PID.TID 0000.0001) %MON trcstat_ptracer78_mean       =   2.1904083196854E-07
(PID.TID 0000.0001) %MON trcstat_ptracer78_sd         =   1.1483912396179E-06
(PID.TID 0000.0001) %MON trcstat_ptracer78_del2       =   0.0000000000000E+00
(PID.TID 0000.0001) %MON trcstat_ptracer79_max        =   7.3461555984977E-06
(PID.TID 0000.0001) %MON trcstat_ptracer79_min        =   0.0000000000000E+00
(PID.TID 0000.0001) %MON trcstat_ptracer79_mean       =   2.1904083196854E-07
(PID.TID 0000.0001) %MON trcstat_ptracer79_sd         =   1.1483912396179E-06
(PID.TID 0000.0001) %MON trcstat_ptracer79_del2       =   0.0000000000000E+00
(PID.TID 0000.0001) %MON trcstat_ptracer80_max        =   7.3461555984977E-06
(PID.TID 0000.0001) %MON trcstat_ptracer80_min        =   0.0000000000000E+00
(PID.TID 0000.0001) %MON trcstat_ptracer80_mean       =   2.1904083196854E-07
(PID.TID 0000.0001) %MON trcstat_ptracer80_sd         =   1.1483912396179E-06
(PID.TID 0000.0001) %MON trcstat_ptracer80_del2       =   0.0000000000000E+00
(PID.TID 0000.0001) %MON trcstat_ptracer81_max        =   7.3461555984977E-06
(PID.TID 0000.0001) %MON trcstat_ptracer81_min        =   0.0000000000000E+00
(PID.TID 0000.0001) %MON trcstat_ptracer81_mean       =   2.1904083196854E-07
(PID.TID 0000.0001) %MON trcstat_ptracer81_sd         =   1.1483912396179E-06
(PID.TID 0000.0001) %MON trcstat_ptracer81_del2       =   0.0000000000000E+00
(PID.TID 0000.0001) %MON trcstat_ptracer82_max        =   7.3461555984977E-06
(PID.TID 0000.0001) %MON trcstat_ptracer82_min        =   0.0000000000000E+00
(PID.TID 0000.0001) %MON trcstat_ptracer82_mean       =   2.1904083196854E-07
(PID.TID 0000.0001) %MON trcstat_ptracer82_sd         =   1.1483912396179E-06
(PID.TID 0000.0001) %MON trcstat_ptracer82_del2       =   0.0000000000000E+00
(PID.TID 0000.0001) %MON trcstat_ptracer83_max        =   7.3461555984977E-06
(PID.TID 0000.0001) %MON trcstat_ptracer83_min        =   0.0000000000000E+00
(PID.TID 0000.0001) %MON trcstat_ptracer83_mean       =   2.1904083196854E-07
(PID.TID 0000.0001) %MON trcstat_ptracer83_sd         =   1.1483912396179E-06
(PID.TID 0000.0001) %MON trcstat_ptracer83_del2       =   0.0000000000000E+00
(PID.TID 0000.0001) %MON trcstat_ptracer84_max        =   7.3461555984977E-06
(PID.TID 0000.0001) %MON trcstat_ptracer84_min        =   0.0000000000000E+00
(PID.TID 0000.0001) %MON trcstat_ptracer84_mean       =   2.1904083196854E-07
(PID.TID 0000.0001) %MON trcstat_ptracer84_sd         =   1.1483912396179E-06
(PID.TID 0000.0001) %MON trcstat_ptracer84_del2       =   0.0000000000000E+00
(PID.TID 0000.0001) %MON trcstat_ptracer85_max        =   7.3461555984977E-06
(PID.TID 0000.0001) %MON trcstat_ptracer85_min        =   0.0000000000000E+00
(PID.TID 0000.0001) %MON trcstat_ptracer85_mean       =   2.1904083196854E-07
(PID.TID 0000.0001) %MON trcstat_ptracer85_sd         =   1.1483912396179E-06
(PID.TID 0000.0001) %MON trcstat_ptracer85_del2       =   0.0000000000000E+00
(PID.TID 0000.0001) %MON trcstat_ptracer86_max        =   7.3461555984977E-06
(PID.TID 0000.0001) %MON trcstat_ptracer86_min        =   0.0000000000000E+00
(PID.TID 0000.0001) %MON trcstat_ptracer86_mean       =   2.1904083196854E-07
(PID.TID 0000.0001) %MON trcstat_ptracer86_sd         =   1.1483912396179E-06
(PID.TID 0000.0001) %MON trcstat_ptracer86_del2       =   0.0000000000000E+00
(PID.TID 0000.0001) %MON trcstat_ptracer87_max        =   7.3461555984977E-06
(PID.TID 0000.0001) %MON trcstat_ptracer87_min        =   0.0000000000000E+00
(PID.TID 0000.0001) %MON trcstat_ptracer87_mean       =   2.1904083196854E-07
(PID.TID 0000.0001) %MON trcstat_ptracer87_sd         =   1.1483912396179E-06
(PID.TID 0000.0001) %MON trcstat_ptracer87_del2       =   0.0000000000000E+00
(PID.TID 0000.0001) %MON trcstat_ptracer88_max        =   7.3461555984977E-06
(PID.TID 0000.0001) %MON trcstat_ptracer88_min        =   0.0000000000000E+00
(PID.TID 0000.0001) %MON trcstat_ptracer88_mean       =   2.1904083196854E-07
(PID.TID 0000.0001) %MON trcstat_ptracer88_sd         =   1.1483912396179E-06
(PID.TID 0000.0001) %MON trcstat_ptracer88_del2       =   0.0000000000000E+00
(PID.TID 0000.0001) %MON trcstat_ptracer89_max        =   7.3461555984977E-06
(PID.TID 0000.0001) %MON trcstat_ptracer89_min        =   0.0000000000000E+00
(PID.TID 0000.0001) %MON trcstat_ptracer89_mean       =   2.1904083196854E-07
(PID.TID 0000.0001) %MON trcstat_ptracer89_sd         =   1.1483912396179E-06
(PID.TID 0000.0001) %MON trcstat_ptracer89_del2       =   0.0000000000000E+00
(PID.TID 0000.0001) %MON trcstat_ptracer90_max        =   7.3461555984977E-06
(PID.TID 0000.0001) %MON trcstat_ptracer90_min        =   0.0000000000000E+00
(PID.TID 0000.0001) %MON trcstat_ptracer90_mean       =   2.1904083196854E-07
(PID.TID 0000.0001) %MON trcstat_ptracer90_sd         =   1.1483912396179E-06
(PID.TID 0000.0001) %MON trcstat_ptracer90_del2       =   0.0000000000000E+00
(PID.TID 0000.0001) %MON trcstat_ptracer91_max        =   7.3461555984977E-06
(PID.TID 0000.0001) %MON trcstat_ptracer91_min        =   0.0000000000000E+00
(PID.TID 0000.0001) %MON trcstat_ptracer91_mean       =   2.1904083196854E-07
(PID.TID 0000.0001) %MON trcstat_ptracer91_sd         =   1.1483912396179E-06
(PID.TID 0000.0001) %MON trcstat_ptracer91_del2       =   0.0000000000000E+00
(PID.TID 0000.0001) %MON trcstat_ptracer92_max        =   7.3461555984977E-06
(PID.TID 0000.0001) %MON trcstat_ptracer92_min        =   0.0000000000000E+00
(PID.TID 0000.0001) %MON trcstat_ptracer92_mean       =   2.1904083196854E-07
(PID.TID 0000.0001) %MON trcstat_ptracer92_sd         =   1.1483912396179E-06
(PID.TID 0000.0001) %MON trcstat_ptracer92_del2       =   0.0000000000000E+00
(PID.TID 0000.0001) %MON trcstat_ptracer93_max        =   7.3461555984977E-06
(PID.TID 0000.0001) %MON trcstat_ptracer93_min        =   0.0000000000000E+00
(PID.TID 0000.0001) %MON trcstat_ptracer93_mean       =   2.1904083196854E-07
(PID.TID 0000.0001) %MON trcstat_ptracer93_sd         =   1.1483912396179E-06
(PID.TID 0000.0001) %MON trcstat_ptracer93_del2       =   0.0000000000000E+00
(PID.TID 0000.0001) %MON trcstat_ptracer94_max        =   7.3461555984977E-06
(PID.TID 0000.0001) %MON trcstat_ptracer94_min        =   0.0000000000000E+00
(PID.TID 0000.0001) %MON trcstat_ptracer94_mean       =   2.1904083196854E-07
(PID.TID 0000.0001) %MON trcstat_ptracer94_sd         =   1.1483912396179E-06
(PID.TID 0000.0001) %MON trcstat_ptracer94_del2       =   0.0000000000000E+00
(PID.TID 0000.0001) %MON trcstat_ptracer95_max        =   7.3461555984977E-06
(PID.TID 0000.0001) %MON trcstat_ptracer95_min        =   0.0000000000000E+00
(PID.TID 0000.0001) %MON trcstat_ptracer95_mean       =   2.1904083196854E-07
(PID.TID 0000.0001) %MON trcstat_ptracer95_sd         =   1.1483912396179E-06
(PID.TID 0000.0001) %MON trcstat_ptracer95_del2       =   0.0000000000000E+00
(PID.TID 0000.0001) %MON trcstat_ptracer96_max        =   7.3461555984977E-06
(PID.TID 0000.0001) %MON trcstat_ptracer96_min        =   0.0000000000000E+00
(PID.TID 0000.0001) %MON trcstat_ptracer96_mean       =   2.1904083196854E-07
(PID.TID 0000.0001) %MON trcstat_ptracer96_sd         =   1.1483912396179E-06
(PID.TID 0000.0001) %MON trcstat_ptracer96_del2       =   0.0000000000000E+00
(PID.TID 0000.0001) %MON trcstat_ptracer97_max        =   7.3461555984977E-06
(PID.TID 0000.0001) %MON trcstat_ptracer97_min        =   0.0000000000000E+00
(PID.TID 0000.0001) %MON trcstat_ptracer97_mean       =   2.1904083196854E-07
(PID.TID 0000.0001) %MON trcstat_ptracer97_sd         =   1.1483912396179E-06
(PID.TID 0000.0001) %MON trcstat_ptracer97_del2       =   0.0000000000000E+00
(PID.TID 0000.0001) %MON trcstat_ptracer98_max        =   7.3461555984977E-06
(PID.TID 0000.0001) %MON trcstat_ptracer98_min        =   0.0000000000000E+00
(PID.TID 0000.0001) %MON trcstat_ptracer98_mean       =   2.1904083196854E-07
(PID.TID 0000.0001) %MON trcstat_ptracer98_sd         =   1.1483912396179E-06
(PID.TID 0000.0001) %MON trcstat_ptracer98_del2       =   0.0000000000000E+00
(PID.TID 0000.0001) %MON trcstat_ptracer99_max        =   7.3461555984977E-06
(PID.TID 0000.0001) %MON trcstat_ptracer99_min        =   0.0000000000000E+00
(PID.TID 0000.0001) %MON trcstat_ptracer99_mean       =   2.1904083196854E-07
(PID.TID 0000.0001) %MON trcstat_ptracer99_sd         =   1.1483912396179E-06
(PID.TID 0000.0001) %MON trcstat_ptracer99_del2       =   0.0000000000000E+00
(PID.TID 0000.0001) // =======================================================
(PID.TID 0000.0001) // End MONITOR ptracers field statistics
(PID.TID 0000.0001) // =======================================================
S/R EXTERNAL_FIELDS_LOAD: Reading new data:   12    1         0  0.000000000000E+00
(PID.TID 0000.0001)  MDS_READ_FIELD: opening global file: ../input/input/loc1_temp_monsurf.bin
(PID.TID 0000.0001)  MDS_READ_FIELD: opening global file: ../input/input/loc1_temp_monsurf.bin
time,SST,SSS,fu,fv,Q,E-P,i0,i1,a,b =   0.0000E+00  2.5676E+01  0.0000E+00  0.0000E+00  0.0000E+00  0.0000E+00  0.0000E+00    12     1  5.0000E-01  5.0000E-01
time,fu0,fu1,fu =   0.0000E+00  0.0000E+00  0.0000E+00  0.0000E+00  5.000000000000000E-01  5.000000000000000E-01
(PID.TID 0000.0001) S/R DARWIN_FIELDS_LOAD: Reading forcing data  0.000000000000E+00          0
(PID.TID 0000.0001)  MDS_READ_FIELD: opening global file: ../input/input/loc1_FeFlux_monsurf.bin
(PID.TID 0000.0001)  MDS_READ_FIELD: opening global file: ../input/input/loc1_FeFlux_monsurf.bin
(PID.TID 0000.0001)  MDS_READ_FIELD: opening global file: ../input/input/loc1_PAR_monsurf.bin
(PID.TID 0000.0001)  MDS_READ_FIELD: opening global file: ../input/input/loc1_PAR_monsurf.bin
(PID.TID 0000.0001) // =======================================================
(PID.TID 0000.0001) // Begin MONITOR dynamic field statistics
(PID.TID 0000.0001) // =======================================================
(PID.TID 0000.0001) %MON time_tsnumber                =                     1
(PID.TID 0000.0001) %MON time_secondsf                =   3.6000000000000E+03
(PID.TID 0000.0001) %MON dynstat_eta_max              =   0.0000000000000E+00
(PID.TID 0000.0001) %MON dynstat_eta_min              =   0.0000000000000E+00
(PID.TID 0000.0001) %MON dynstat_eta_mean             =   0.0000000000000E+00
(PID.TID 0000.0001) %MON dynstat_eta_sd               =   0.0000000000000E+00
(PID.TID 0000.0001) %MON dynstat_eta_del2             =   0.0000000000000E+00
(PID.TID 0000.0001) %MON dynstat_uvel_max             =   0.0000000000000E+00
(PID.TID 0000.0001) %MON dynstat_uvel_min             =   0.0000000000000E+00
(PID.TID 0000.0001) %MON dynstat_uvel_mean            =   0.0000000000000E+00
(PID.TID 0000.0001) %MON dynstat_uvel_sd              =   0.0000000000000E+00
(PID.TID 0000.0001) %MON dynstat_uvel_del2            =   0.0000000000000E+00
(PID.TID 0000.0001) %MON dynstat_vvel_max             =   0.0000000000000E+00
(PID.TID 0000.0001) %MON dynstat_vvel_min             =   0.0000000000000E+00
(PID.TID 0000.0001) %MON dynstat_vvel_mean            =   0.0000000000000E+00
(PID.TID 0000.0001) %MON dynstat_vvel_sd              =   0.0000000000000E+00
(PID.TID 0000.0001) %MON dynstat_vvel_del2            =   0.0000000000000E+00
(PID.TID 0000.0001) %MON dynstat_wvel_max             =   0.0000000000000E+00
(PID.TID 0000.0001) %MON dynstat_wvel_min             =   0.0000000000000E+00
(PID.TID 0000.0001) %MON dynstat_wvel_mean            =   0.0000000000000E+00
(PID.TID 0000.0001) %MON dynstat_wvel_sd              =   0.0000000000000E+00
(PID.TID 0000.0001) %MON dynstat_wvel_del2            =   0.0000000000000E+00
(PID.TID 0000.0001) %MON dynstat_theta_max            =   2.6335817374515E+01
(PID.TID 0000.0001) %MON dynstat_theta_min            =   2.6737003185748E+00
(PID.TID 0000.0001) %MON dynstat_theta_mean           =   5.4735670012030E+00
(PID.TID 0000.0001) %MON dynstat_theta_sd             =   5.1970860626953E+00
(PID.TID 0000.0001) %MON dynstat_theta_del2           =   0.0000000000000E+00
(PID.TID 0000.0001) %MON dynstat_salt_max             =   3.5000000000000E+01
(PID.TID 0000.0001) %MON dynstat_salt_min             =   3.5000000000000E+01
(PID.TID 0000.0001) %MON dynstat_salt_mean            =   3.5000000000000E+01
(PID.TID 0000.0001) %MON dynstat_salt_sd              =   7.1054273576010E-15
(PID.TID 0000.0001) %MON dynstat_salt_del2            =   0.0000000000000E+00
(PID.TID 0000.0001) %MON dynstat_sst_max              =   2.6335817374515E+01
(PID.TID 0000.0001) %MON dynstat_sst_min              =   2.6335817374515E+01
(PID.TID 0000.0001) %MON dynstat_sst_mean             =   2.6335817374515E+01
(PID.TID 0000.0001) %MON dynstat_sst_sd               =   0.0000000000000E+00
(PID.TID 0000.0001) %MON dynstat_sst_del2             =   0.0000000000000E+00
(PID.TID 0000.0001) %MON dynstat_sss_max              =   3.5000000000000E+01
(PID.TID 0000.0001) %MON dynstat_sss_min              =   3.5000000000000E+01
(PID.TID 0000.0001) %MON dynstat_sss_mean             =   3.5000000000000E+01
(PID.TID 0000.0001) %MON dynstat_sss_sd               =   0.0000000000000E+00
(PID.TID 0000.0001) %MON dynstat_sss_del2             =   0.0000000000000E+00
(PID.TID 0000.0001) %MON extforcing_qnet_max          =   0.0000000000000E+00
(PID.TID 0000.0001) %MON extforcing_qnet_min          =   0.0000000000000E+00
(PID.TID 0000.0001) %MON extforcing_qnet_mean         =   0.0000000000000E+00
(PID.TID 0000.0001) %MON extforcing_qnet_sd           =   0.0000000000000E+00
(PID.TID 0000.0001) %MON extforcing_qnet_del2         =   0.0000000000000E+00
(PID.TID 0000.0001) %MON extforcing_qsw_max           =   0.0000000000000E+00
(PID.TID 0000.0001) %MON extforcing_qsw_min           =   0.0000000000000E+00
(PID.TID 0000.0001) %MON extforcing_qsw_mean          =   0.0000000000000E+00
(PID.TID 0000.0001) %MON extforcing_qsw_sd            =   0.0000000000000E+00
(PID.TID 0000.0001) %MON extforcing_qsw_del2          =   0.0000000000000E+00
(PID.TID 0000.0001) %MON extforcing_empmr_max         =   0.0000000000000E+00
(PID.TID 0000.0001) %MON extforcing_empmr_min         =   0.0000000000000E+00
(PID.TID 0000.0001) %MON extforcing_empmr_mean        =   0.0000000000000E+00
(PID.TID 0000.0001) %MON extforcing_empmr_sd          =   0.0000000000000E+00
(PID.TID 0000.0001) %MON extforcing_empmr_del2        =   0.0000000000000E+00
(PID.TID 0000.0001) %MON extforcing_fu_max            =   0.0000000000000E+00
(PID.TID 0000.0001) %MON extforcing_fu_min            =   0.0000000000000E+00
(PID.TID 0000.0001) %MON extforcing_fu_mean           =   0.0000000000000E+00
(PID.TID 0000.0001) %MON extforcing_fu_sd             =   0.0000000000000E+00
(PID.TID 0000.0001) %MON extforcing_fu_del2           =   0.0000000000000E+00
(PID.TID 0000.0001) %MON extforcing_fv_max            =   0.0000000000000E+00
(PID.TID 0000.0001) %MON extforcing_fv_min            =   0.0000000000000E+00
(PID.TID 0000.0001) %MON extforcing_fv_mean           =   0.0000000000000E+00
(PID.TID 0000.0001) %MON extforcing_fv_sd             =   0.0000000000000E+00
(PID.TID 0000.0001) %MON extforcing_fv_del2           =   0.0000000000000E+00
(PID.TID 0000.0001) %MON advcfl_uvel_max              =   0.0000000000000E+00
(PID.TID 0000.0001) %MON advcfl_vvel_max              =   0.0000000000000E+00
(PID.TID 0000.0001) %MON advcfl_wvel_max              =   0.0000000000000E+00
(PID.TID 0000.0001) %MON advcfl_W_hf_max              =   0.0000000000000E+00
(PID.TID 0000.0001) %MON pe_b_mean                    =   0.0000000000000E+00
(PID.TID 0000.0001) %MON ke_max                       =   0.0000000000000E+00
(PID.TID 0000.0001) %MON ke_mean                      =   0.0000000000000E+00
(PID.TID 0000.0001) %MON ke_vol                       =   4.1199767883485E+13
(PID.TID 0000.0001) %MON vort_r_min                   =   0.0000000000000E+00
(PID.TID 0000.0001) %MON vort_r_max                   =   0.0000000000000E+00
(PID.TID 0000.0001) %MON vort_a_mean                  =  -4.5067801836625E-05
(PID.TID 0000.0001) %MON vort_a_sd                    =  -4.1359030627651E-25
(PID.TID 0000.0001) %MON vort_p_mean                  =  -4.5067801836625E-05
(PID.TID 0000.0001) %MON vort_p_sd                    =   0.0000000000000E+00
(PID.TID 0000.0001) %MON surfExpan_theta_mean         =   0.0000000000000E+00
(PID.TID 0000.0001) %MON surfExpan_salt_mean          =   0.0000000000000E+00
(PID.TID 0000.0001) // =======================================================
(PID.TID 0000.0001) // End MONITOR dynamic field statistics
(PID.TID 0000.0001) // =======================================================
(PID.TID 0000.0001) // =======================================================
(PID.TID 0000.0001) // Begin MONITOR ptracer field statistics
(PID.TID 0000.0001) // =======================================================
(PID.TID 0000.0001) %MON trcstat_ptracer01_max        =   2.2436999316292E+00
(PID.TID 0000.0001) %MON trcstat_ptracer01_min        =   2.1025172064389E-01
(PID.TID 0000.0001) %MON trcstat_ptracer01_mean       =   1.5821338562181E+00
(PID.TID 0000.0001) %MON trcstat_ptracer01_sd         =   4.6735034619647E-01
(PID.TID 0000.0001) %MON trcstat_ptracer01_del2       =   0.0000000000000E+00
(PID.TID 0000.0001) %MON trcstat_ptracer02_max        =   3.3903497946887E+01
(PID.TID 0000.0001) %MON trcstat_ptracer02_min        =   4.6383891461018E-02
(PID.TID 0000.0001) %MON trcstat_ptracer02_mean       =   2.3502391107720E+01
(PID.TID 0000.0001) %MON trcstat_ptracer02_sd         =   7.8161988927399E+00
(PID.TID 0000.0001) %MON trcstat_ptracer02_del2       =   0.0000000000000E+00
(PID.TID 0000.0001) %MON trcstat_ptracer03_max        =   1.3001302507645E-03
(PID.TID 0000.0001) %MON trcstat_ptracer03_min        =   1.2999853935924E-03
(PID.TID 0000.0001) %MON trcstat_ptracer03_mean       =   1.2999859154194E-03
(PID.TID 0000.0001) %MON trcstat_ptracer03_sd         =   7.7349088279073E-09
(PID.TID 0000.0001) %MON trcstat_ptracer03_del2       =   0.0000000000000E+00
(PID.TID 0000.0001) %MON trcstat_ptracer04_max        =   3.9387401347897E+01
(PID.TID 0000.0001) %MON trcstat_ptracer04_min        =   1.2247981425790E+00
(PID.TID 0000.0001) %MON trcstat_ptracer04_mean       =   2.9621889358308E+01
(PID.TID 0000.0001) %MON trcstat_ptracer04_sd         =   1.1270586899834E+01
(PID.TID 0000.0001) %MON trcstat_ptracer04_del2       =   0.0000000000000E+00
(PID.TID 0000.0001) %MON trcstat_ptracer05_max        =   5.1128475677732E-03
(PID.TID 0000.0001) %MON trcstat_ptracer05_min        =   1.8021877931925E-35
(PID.TID 0000.0001) %MON trcstat_ptracer05_mean       =   2.1469291304210E-04
(PID.TID 0000.0001) %MON trcstat_ptracer05_sd         =   9.2426833925338E-04
(PID.TID 0000.0001) %MON trcstat_ptracer05_del2       =   0.0000000000000E+00
(PID.TID 0000.0001) %MON trcstat_ptracer06_max        =   8.1805561084371E-02
(PID.TID 0000.0001) %MON trcstat_ptracer06_min        =   2.8835004691081E-34
(PID.TID 0000.0001) %MON trcstat_ptracer06_mean       =   3.4350866086736E-03
(PID.TID 0000.0001) %MON trcstat_ptracer06_sd         =   1.4788293428054E-02
(PID.TID 0000.0001) %MON trcstat_ptracer06_del2       =   0.0000000000000E+00
(PID.TID 0000.0001) %MON trcstat_ptracer07_max        =   5.1128472080615E-06
(PID.TID 0000.0001) %MON trcstat_ptracer07_min        =   1.8021850847697E-38
(PID.TID 0000.0001) %MON trcstat_ptracer07_mean       =   2.1469291334847E-07
(PID.TID 0000.0001) %MON trcstat_ptracer07_sd         =   9.2426833891161E-07
(PID.TID 0000.0001) %MON trcstat_ptracer07_del2       =   0.0000000000000E+00
(PID.TID 0000.0001) %MON trcstat_ptracer08_max        =   1.0346652127665E-09
(PID.TID 0000.0001) %MON trcstat_ptracer08_min        =   2.3081610895631E-37
(PID.TID 0000.0001) %MON trcstat_ptracer08_mean       =   1.3683067234623E-10
(PID.TID 0000.0001) %MON trcstat_ptracer08_sd         =   2.5027200392744E-10
(PID.TID 0000.0001) %MON trcstat_ptracer08_del2       =   0.0000000000000E+00
(PID.TID 0000.0001) %MON trcstat_ptracer09_max        =   1.6554643404264E-08
(PID.TID 0000.0001) %MON trcstat_ptracer09_min        =   3.6930577433009E-36
(PID.TID 0000.0001) %MON trcstat_ptracer09_mean       =   2.1892907575396E-09
(PID.TID 0000.0001) %MON trcstat_ptracer09_sd         =   4.0043520628391E-09
(PID.TID 0000.0001) %MON trcstat_ptracer09_del2       =   0.0000000000000E+00
(PID.TID 0000.0001) %MON trcstat_ptracer10_max        =   1.0346651772563E-12
(PID.TID 0000.0001) %MON trcstat_ptracer10_min        =   2.3081609238528E-40
(PID.TID 0000.0001) %MON trcstat_ptracer10_mean       =   1.3683066331514E-13
(PID.TID 0000.0001) %MON trcstat_ptracer10_sd         =   2.5027198965292E-13
(PID.TID 0000.0001) %MON trcstat_ptracer10_del2       =   0.0000000000000E+00
(PID.TID 0000.0001) %MON trcstat_ptracer11_max        =   4.2484844982689E-09
(PID.TID 0000.0001) %MON trcstat_ptracer11_min        =   2.3720837755898E-43
(PID.TID 0000.0001) %MON trcstat_ptracer11_mean       =   5.1499652999737E-10
(PID.TID 0000.0001) %MON trcstat_ptracer11_sd         =   1.0364344075045E-09
(PID.TID 0000.0001) %MON trcstat_ptracer11_del2       =   0.0000000000000E+00
(PID.TID 0000.0001) %MON trcstat_ptracer12_max        =   1.0346638302655E-09
(PID.TID 0000.0001) %MON trcstat_ptracer12_min        =   2.3081610895631E-37
(PID.TID 0000.0001) %MON trcstat_ptracer12_mean       =   1.3683063300198E-10
(PID.TID 0000.0001) %MON trcstat_ptracer12_sd         =   2.5027187204403E-10
(PID.TID 0000.0001) %MON trcstat_ptracer12_del2       =   0.0000000000000E+00
(PID.TID 0000.0001) %MON trcstat_ptracer13_max        =   1.6554621284249E-08
(PID.TID 0000.0001) %MON trcstat_ptracer13_min        =   3.6930577433009E-36
(PID.TID 0000.0001) %MON trcstat_ptracer13_mean       =   2.1892901280317E-09
(PID.TID 0000.0001) %MON trcstat_ptracer13_sd         =   4.0043499527045E-09
(PID.TID 0000.0001) %MON trcstat_ptracer13_del2       =   0.0000000000000E+00
(PID.TID 0000.0001) %MON trcstat_ptracer14_max        =   1.0346637947553E-12
(PID.TID 0000.0001) %MON trcstat_ptracer14_min        =   2.3081609238528E-40
(PID.TID 0000.0001) %MON trcstat_ptracer14_mean       =   1.3683062397090E-13
(PID.TID 0000.0001) %MON trcstat_ptracer14_sd         =   2.5027185776950E-13
(PID.TID 0000.0001) %MON trcstat_ptracer14_del2       =   0.0000000000000E+00
(PID.TID 0000.0001) %MON trcstat_ptracer15_max        =   4.2484844983699E-09
(PID.TID 0000.0001) %MON trcstat_ptracer15_min        =   2.3720837755898E-43
(PID.TID 0000.0001) %MON trcstat_ptracer15_mean       =   5.1500038725977E-10
(PID.TID 0000.0001) %MON trcstat_ptracer15_sd         =   1.0364324911286E-09
(PID.TID 0000.0001) %MON trcstat_ptracer15_del2       =   0.0000000000000E+00
(PID.TID 0000.0001) %MON trcstat_ptracer16_max        =   2.7223320143064E-04
(PID.TID 0000.0001) %MON trcstat_ptracer16_min        =   1.1738639280032E-06
(PID.TID 0000.0001) %MON trcstat_ptracer16_mean       =   7.8890152099610E-05
(PID.TID 0000.0001) %MON trcstat_ptracer16_sd         =   9.6563256801622E-05
(PID.TID 0000.0001) %MON trcstat_ptracer16_del2       =   0.0000000000000E+00
(PID.TID 0000.0001) %MON trcstat_ptracer17_max        =   4.3557312228902E-03
(PID.TID 0000.0001) %MON trcstat_ptracer17_min        =   1.8781822848050E-05
(PID.TID 0000.0001) %MON trcstat_ptracer17_mean       =   1.2622424335938E-03
(PID.TID 0000.0001) %MON trcstat_ptracer17_sd         =   1.5450121088260E-03
(PID.TID 0000.0001) %MON trcstat_ptracer17_del2       =   0.0000000000000E+00
(PID.TID 0000.0001) %MON trcstat_ptracer18_max        =   2.7223321719346E-07
(PID.TID 0000.0001) %MON trcstat_ptracer18_min        =   1.1738637993409E-09
(PID.TID 0000.0001) %MON trcstat_ptracer18_mean       =   7.8890152625791E-08
(PID.TID 0000.0001) %MON trcstat_ptracer18_sd         =   9.6563258859070E-08
(PID.TID 0000.0001) %MON trcstat_ptracer18_del2       =   0.0000000000000E+00
(PID.TID 0000.0001) %MON trcstat_ptracer19_max        =   1.6249560323349E-02
(PID.TID 0000.0001) %MON trcstat_ptracer19_min        =   1.1386925448278E-03
(PID.TID 0000.0001) %MON trcstat_ptracer19_mean       =   5.4889531644477E-03
(PID.TID 0000.0001) %MON trcstat_ptracer19_sd         =   5.1715451278373E-03
(PID.TID 0000.0001) %MON trcstat_ptracer19_del2       =   0.0000000000000E+00
(PID.TID 0000.0001) %MON trcstat_ptracer20_max        =   2.5601369563556E-02
(PID.TID 0000.0001) %MON trcstat_ptracer20_min        =   1.8763301829746E-07
(PID.TID 0000.0001) %MON trcstat_ptracer20_mean       =   6.0395232333397E-04
(PID.TID 0000.0001) %MON trcstat_ptracer20_sd         =   3.2462670196908E-03
(PID.TID 0000.0001) %MON trcstat_ptracer20_del2       =   0.0000000000000E+00
(PID.TID 0000.0001) %MON trcstat_ptracer21_max        =   1.8312165478563E-02
(PID.TID 0000.0001) %MON trcstat_ptracer21_min        =   3.8791489719394E-06
(PID.TID 0000.0001) %MON trcstat_ptracer21_mean       =   6.0478582740246E-04
(PID.TID 0000.0001) %MON trcstat_ptracer21_sd         =   1.9440325720994E-03
(PID.TID 0000.0001) %MON trcstat_ptracer21_del2       =   0.0000000000000E+00
(PID.TID 0000.0001) %MON trcstat_ptracer22_max        =   7.3308280436611E-06
(PID.TID 0000.0001) %MON trcstat_ptracer22_min        =   9.5459218922750E-37
(PID.TID 0000.0001) %MON trcstat_ptracer22_mean       =   2.1873986446374E-07
(PID.TID 0000.0001) %MON trcstat_ptracer22_sd         =   1.1463926058189E-06
(PID.TID 0000.0001) %MON trcstat_ptracer22_del2       =   0.0000000000000E+00
(PID.TID 0000.0001) %MON trcstat_ptracer23_max        =   7.4002444190983E-06
(PID.TID 0000.0001) %MON trcstat_ptracer23_min        =   9.5459218922750E-37
(PID.TID 0000.0001) %MON trcstat_ptracer23_mean       =   2.2038512806137E-07
(PID.TID 0000.0001) %MON trcstat_ptracer23_sd         =   1.1561224096435E-06
(PID.TID 0000.0001) %MON trcstat_ptracer23_del2       =   0.0000000000000E+00
(PID.TID 0000.0001) %MON trcstat_ptracer24_max        =   7.3154912431481E-06
(PID.TID 0000.0001) %MON trcstat_ptracer24_min        =   3.2877078143340E-39
(PID.TID 0000.0001) %MON trcstat_ptracer24_mean       =   2.1812816178258E-07
(PID.TID 0000.0001) %MON trcstat_ptracer24_sd         =   1.1436004539493E-06
(PID.TID 0000.0001) %MON trcstat_ptracer24_del2       =   0.0000000000000E+00
(PID.TID 0000.0001) %MON trcstat_ptracer25_max        =   7.3603090220427E-06
(PID.TID 0000.0001) %MON trcstat_ptracer25_min        =   3.2877078143340E-39
(PID.TID 0000.0001) %MON trcstat_ptracer25_mean       =   2.1938989782145E-07
(PID.TID 0000.0001) %MON trcstat_ptracer25_sd         =   1.1506324209734E-06
(PID.TID 0000.0001) %MON trcstat_ptracer25_del2       =   0.0000000000000E+00
(PID.TID 0000.0001) %MON trcstat_ptracer26_max        =   7.3803128796468E-06
(PID.TID 0000.0001) %MON trcstat_ptracer26_min        =   9.5459218922750E-37
(PID.TID 0000.0001) %MON trcstat_ptracer26_mean       =   2.1985978524457E-07
(PID.TID 0000.0001) %MON trcstat_ptracer26_sd         =   1.1531177215934E-06
(PID.TID 0000.0001) %MON trcstat_ptracer26_del2       =   0.0000000000000E+00
(PID.TID 0000.0001) %MON trcstat_ptracer27_max        =   7.3154912431483E-06
(PID.TID 0000.0001) %MON trcstat_ptracer27_min        =   3.2877078143340E-39
(PID.TID 0000.0001) %MON trcstat_ptracer27_mean       =   2.1812816178258E-07
(PID.TID 0000.0001) %MON trcstat_ptracer27_sd         =   1.1436004539493E-06
(PID.TID 0000.0001) %MON trcstat_ptracer27_del2       =   0.0000000000000E+00
(PID.TID 0000.0001) %MON trcstat_ptracer28_max        =   7.3619802289796E-06
(PID.TID 0000.0001) %MON trcstat_ptracer28_min        =   3.2877078143340E-39
(PID.TID 0000.0001) %MON trcstat_ptracer28_mean       =   2.1949738506373E-07
(PID.TID 0000.0001) %MON trcstat_ptracer28_sd         =   1.1511131763852E-06
(PID.TID 0000.0001) %MON trcstat_ptracer28_del2       =   0.0000000000000E+00
(PID.TID 0000.0001) %MON trcstat_ptracer29_max        =   7.3454470921974E-06
(PID.TID 0000.0001) %MON trcstat_ptracer29_min        =   3.2877078143340E-39
(PID.TID 0000.0001) %MON trcstat_ptracer29_mean       =   2.1882275132287E-07
(PID.TID 0000.0001) %MON trcstat_ptracer29_sd         =   1.1477547084740E-06
(PID.TID 0000.0001) %MON trcstat_ptracer29_del2       =   0.0000000000000E+00
(PID.TID 0000.0001) %MON trcstat_ptracer30_max        =   7.3154912431485E-06
(PID.TID 0000.0001) %MON trcstat_ptracer30_min        =   3.2877078143340E-39
(PID.TID 0000.0001) %MON trcstat_ptracer30_mean       =   2.1812840640832E-07
(PID.TID 0000.0001) %MON trcstat_ptracer30_sd         =   1.1436004255164E-06
(PID.TID 0000.0001) %MON trcstat_ptracer30_del2       =   0.0000000000000E+00
(PID.TID 0000.0001) %MON trcstat_ptracer31_max        =   7.3535033141707E-06
(PID.TID 0000.0001) %MON trcstat_ptracer31_min        =   3.2877078143340E-39
(PID.TID 0000.0001) %MON trcstat_ptracer31_mean       =   2.1919554410029E-07
(PID.TID 0000.0001) %MON trcstat_ptracer31_sd         =   1.1496055775727E-06
(PID.TID 0000.0001) %MON trcstat_ptracer31_del2       =   0.0000000000000E+00
(PID.TID 0000.0001) %MON trcstat_ptracer32_max        =   7.3153367264056E-06
(PID.TID 0000.0001) %MON trcstat_ptracer32_min        =   9.5459218922750E-37
(PID.TID 0000.0001) %MON trcstat_ptracer32_mean       =   2.1812816178258E-07
(PID.TID 0000.0001) %MON trcstat_ptracer32_sd         =   1.1434544519163E-06
(PID.TID 0000.0001) %MON trcstat_ptracer32_del2       =   0.0000000000000E+00
(PID.TID 0000.0001) %MON trcstat_ptracer33_max        =   7.3617890080858E-06
(PID.TID 0000.0001) %MON trcstat_ptracer33_min        =   3.2877078143340E-39
(PID.TID 0000.0001) %MON trcstat_ptracer33_mean       =   2.1946072744299E-07
(PID.TID 0000.0001) %MON trcstat_ptracer33_sd         =   1.1506408715282E-06
(PID.TID 0000.0001) %MON trcstat_ptracer33_del2       =   0.0000000000000E+00
(PID.TID 0000.0001) %MON trcstat_ptracer34_max        =   7.3881080301962E-06
(PID.TID 0000.0001) %MON trcstat_ptracer34_min        =   9.5459218922750E-37
(PID.TID 0000.0001) %MON trcstat_ptracer34_mean       =   2.2007192346994E-07
(PID.TID 0000.0001) %MON trcstat_ptracer34_sd         =   1.1542226001330E-06
(PID.TID 0000.0001) %MON trcstat_ptracer34_del2       =   0.0000000000000E+00
(PID.TID 0000.0001) %MON trcstat_ptracer35_max        =   7.3153367269737E-06
(PID.TID 0000.0001) %MON trcstat_ptracer35_min        =   9.5459218922750E-37
(PID.TID 0000.0001) %MON trcstat_ptracer35_mean       =   2.1812816179845E-07
(PID.TID 0000.0001) %MON trcstat_ptracer35_sd         =   1.1434544520017E-06
(PID.TID 0000.0001) %MON trcstat_ptracer35_del2       =   0.0000000000000E+00
(PID.TID 0000.0001) %MON trcstat_ptracer36_max        =   7.3154912431479E-06
(PID.TID 0000.0001) %MON trcstat_ptracer36_min        =   3.2877078143340E-39
(PID.TID 0000.0001) %MON trcstat_ptracer36_mean       =   2.1812816178257E-07
(PID.TID 0000.0001) %MON trcstat_ptracer36_sd         =   1.1436004539492E-06
(PID.TID 0000.0001) %MON trcstat_ptracer36_del2       =   0.0000000000000E+00
(PID.TID 0000.0001) %MON trcstat_ptracer37_max        =   7.3154912431480E-06
(PID.TID 0000.0001) %MON trcstat_ptracer37_min        =   3.2877078143340E-39
(PID.TID 0000.0001) %MON trcstat_ptracer37_mean       =   2.1812816178257E-07
(PID.TID 0000.0001) %MON trcstat_ptracer37_sd         =   1.1436004539492E-06
(PID.TID 0000.0001) %MON trcstat_ptracer37_del2       =   0.0000000000000E+00
(PID.TID 0000.0001) %MON trcstat_ptracer38_max        =   7.3154912431479E-06
(PID.TID 0000.0001) %MON trcstat_ptracer38_min        =   3.2877078143340E-39
(PID.TID 0000.0001) %MON trcstat_ptracer38_mean       =   2.1812816178257E-07
(PID.TID 0000.0001) %MON trcstat_ptracer38_sd         =   1.1436004539492E-06
(PID.TID 0000.0001) %MON trcstat_ptracer38_del2       =   0.0000000000000E+00
(PID.TID 0000.0001) %MON trcstat_ptracer39_max        =   7.3154912431481E-06
(PID.TID 0000.0001) %MON trcstat_ptracer39_min        =   3.2877078143340E-39
(PID.TID 0000.0001) %MON trcstat_ptracer39_mean       =   2.1812816178258E-07
(PID.TID 0000.0001) %MON trcstat_ptracer39_sd         =   1.1436004539493E-06
(PID.TID 0000.0001) %MON trcstat_ptracer39_del2       =   0.0000000000000E+00
(PID.TID 0000.0001) %MON trcstat_ptracer40_max        =   7.3154912431488E-06
(PID.TID 0000.0001) %MON trcstat_ptracer40_min        =   3.2877078143340E-39
(PID.TID 0000.0001) %MON trcstat_ptracer40_mean       =   2.1812816178260E-07
(PID.TID 0000.0001) %MON trcstat_ptracer40_sd         =   1.1436004539494E-06
(PID.TID 0000.0001) %MON trcstat_ptracer40_del2       =   0.0000000000000E+00
(PID.TID 0000.0001) %MON trcstat_ptracer41_max        =   7.3392290255944E-06
(PID.TID 0000.0001) %MON trcstat_ptracer41_min        =   3.2877078143340E-39
(PID.TID 0000.0001) %MON trcstat_ptracer41_mean       =   2.1895953729118E-07
(PID.TID 0000.0001) %MON trcstat_ptracer41_sd         =   1.1478454916415E-06
(PID.TID 0000.0001) %MON trcstat_ptracer41_del2       =   0.0000000000000E+00
(PID.TID 0000.0001) %MON trcstat_ptracer42_max        =   7.3154912431488E-06
(PID.TID 0000.0001) %MON trcstat_ptracer42_min        =   3.2877078143340E-39
(PID.TID 0000.0001) %MON trcstat_ptracer42_mean       =   2.1812816178260E-07
(PID.TID 0000.0001) %MON trcstat_ptracer42_sd         =   1.1436004539494E-06
(PID.TID 0000.0001) %MON trcstat_ptracer42_del2       =   0.0000000000000E+00
(PID.TID 0000.0001) %MON trcstat_ptracer43_max        =   7.3153367264068E-06
(PID.TID 0000.0001) %MON trcstat_ptracer43_min        =   9.5459218922750E-37
(PID.TID 0000.0001) %MON trcstat_ptracer43_mean       =   2.1812816178261E-07
(PID.TID 0000.0001) %MON trcstat_ptracer43_sd         =   1.1434544519164E-06
(PID.TID 0000.0001) %MON trcstat_ptracer43_del2       =   0.0000000000000E+00
(PID.TID 0000.0001) %MON trcstat_ptracer44_max        =   7.3496255463127E-06
(PID.TID 0000.0001) %MON trcstat_ptracer44_min        =   3.2877078143340E-39
(PID.TID 0000.0001) %MON trcstat_ptracer44_mean       =   2.1917004523325E-07
(PID.TID 0000.0001) %MON trcstat_ptracer44_sd         =   1.1489716618357E-06
(PID.TID 0000.0001) %MON trcstat_ptracer44_del2       =   0.0000000000000E+00
(PID.TID 0000.0001) %MON trcstat_ptracer45_max        =   7.3153367269737E-06
(PID.TID 0000.0001) %MON trcstat_ptracer45_min        =   9.5459218922750E-37
(PID.TID 0000.0001) %MON trcstat_ptracer45_mean       =   2.1812816179845E-07
(PID.TID 0000.0001) %MON trcstat_ptracer45_sd         =   1.1434544520017E-06
(PID.TID 0000.0001) %MON trcstat_ptracer45_del2       =   0.0000000000000E+00
(PID.TID 0000.0001) %MON trcstat_ptracer46_max        =   7.3153367264063E-06
(PID.TID 0000.0001) %MON trcstat_ptracer46_min        =   9.5459218922750E-37
(PID.TID 0000.0001) %MON trcstat_ptracer46_mean       =   2.1812907111118E-07
(PID.TID 0000.0001) %MON trcstat_ptracer46_sd         =   1.1434543555961E-06
(PID.TID 0000.0001) %MON trcstat_ptracer46_del2       =   0.0000000000000E+00
(PID.TID 0000.0001) %MON trcstat_ptracer47_max        =   7.3204828191866E-06
(PID.TID 0000.0001) %MON trcstat_ptracer47_min        =   9.5459218922750E-37
(PID.TID 0000.0001) %MON trcstat_ptracer47_mean       =   2.1848021992573E-07
(PID.TID 0000.0001) %MON trcstat_ptracer47_sd         =   1.1449582213422E-06
(PID.TID 0000.0001) %MON trcstat_ptracer47_del2       =   0.0000000000000E+00
(PID.TID 0000.0001) %MON trcstat_ptracer48_max        =   7.3629320666636E-06
(PID.TID 0000.0001) %MON trcstat_ptracer48_min        =   3.2877078143340E-39
(PID.TID 0000.0001) %MON trcstat_ptracer48_mean       =   2.1944982539022E-07
(PID.TID 0000.0001) %MON trcstat_ptracer48_sd         =   1.1509882888358E-06
(PID.TID 0000.0001) %MON trcstat_ptracer48_del2       =   0.0000000000000E+00
(PID.TID 0000.0001) %MON trcstat_ptracer49_max        =   7.3153367269733E-06
(PID.TID 0000.0001) %MON trcstat_ptracer49_min        =   9.5459218922750E-37
(PID.TID 0000.0001) %MON trcstat_ptracer49_mean       =   2.1812816179844E-07
(PID.TID 0000.0001) %MON trcstat_ptracer49_sd         =   1.1434544520017E-06
(PID.TID 0000.0001) %MON trcstat_ptracer49_del2       =   0.0000000000000E+00
(PID.TID 0000.0001) %MON trcstat_ptracer50_max        =   7.3326867724227E-06
(PID.TID 0000.0001) %MON trcstat_ptracer50_min        =   3.2877078143340E-39
(PID.TID 0000.0001) %MON trcstat_ptracer50_mean       =   2.1871583353159E-07
(PID.TID 0000.0001) %MON trcstat_ptracer50_sd         =   1.1465512144940E-06
(PID.TID 0000.0001) %MON trcstat_ptracer50_del2       =   0.0000000000000E+00
(PID.TID 0000.0001) %MON trcstat_ptracer51_max        =   7.3153367264059E-06
(PID.TID 0000.0001) %MON trcstat_ptracer51_min        =   9.5459218922750E-37
(PID.TID 0000.0001) %MON trcstat_ptracer51_mean       =   2.1812816178258E-07
(PID.TID 0000.0001) %MON trcstat_ptracer51_sd         =   1.1434544519163E-06
(PID.TID 0000.0001) %MON trcstat_ptracer51_del2       =   0.0000000000000E+00
(PID.TID 0000.0001) %MON trcstat_ptracer52_max        =   7.3167900390810E-06
(PID.TID 0000.0001) %MON trcstat_ptracer52_min        =   3.2877078143340E-39
(PID.TID 0000.0001) %MON trcstat_ptracer52_mean       =   2.1838347738253E-07
(PID.TID 0000.0001) %MON trcstat_ptracer52_sd         =   1.1446576840467E-06
(PID.TID 0000.0001) %MON trcstat_ptracer52_del2       =   0.0000000000000E+00
(PID.TID 0000.0001) %MON trcstat_ptracer53_max        =   7.3695797418487E-06
(PID.TID 0000.0001) %MON trcstat_ptracer53_min        =   3.2877078143340E-39
(PID.TID 0000.0001) %MON trcstat_ptracer53_mean       =   2.1966559409402E-07
(PID.TID 0000.0001) %MON trcstat_ptracer53_sd         =   1.1521364930533E-06
(PID.TID 0000.0001) %MON trcstat_ptracer53_del2       =   0.0000000000000E+00
(PID.TID 0000.0001) %MON trcstat_ptracer54_max        =   7.3153367264056E-06
(PID.TID 0000.0001) %MON trcstat_ptracer54_min        =   9.5459218922750E-37
(PID.TID 0000.0001) %MON trcstat_ptracer54_mean       =   2.1812825614459E-07
(PID.TID 0000.0001) %MON trcstat_ptracer54_sd         =   1.1434544378320E-06
(PID.TID 0000.0001) %MON trcstat_ptracer54_del2       =   0.0000000000000E+00
(PID.TID 0000.0001) %MON trcstat_ptracer55_max        =   7.3154912431499E-06
(PID.TID 0000.0001) %MON trcstat_ptracer55_min        =   3.2877078143340E-39
(PID.TID 0000.0001) %MON trcstat_ptracer55_mean       =   2.1812816178263E-07
(PID.TID 0000.0001) %MON trcstat_ptracer55_sd         =   1.1436004539495E-06
(PID.TID 0000.0001) %MON trcstat_ptracer55_del2       =   0.0000000000000E+00
(PID.TID 0000.0001) %MON trcstat_ptracer56_max        =   7.3784255110164E-06
(PID.TID 0000.0001) %MON trcstat_ptracer56_min        =   9.5459218922750E-37
(PID.TID 0000.0001) %MON trcstat_ptracer56_mean       =   2.1983789077909E-07
(PID.TID 0000.0001) %MON trcstat_ptracer56_sd         =   1.1529498415064E-06
(PID.TID 0000.0001) %MON trcstat_ptracer56_del2       =   0.0000000000000E+00
(PID.TID 0000.0001) %MON trcstat_ptracer57_max        =   7.3153367269731E-06
(PID.TID 0000.0001) %MON trcstat_ptracer57_min        =   9.5459218922750E-37
(PID.TID 0000.0001) %MON trcstat_ptracer57_mean       =   2.1812816179843E-07
(PID.TID 0000.0001) %MON trcstat_ptracer57_sd         =   1.1434544520016E-06
(PID.TID 0000.0001) %MON trcstat_ptracer57_del2       =   0.0000000000000E+00
(PID.TID 0000.0001) %MON trcstat_ptracer58_max        =   7.3883244184523E-06
(PID.TID 0000.0001) %MON trcstat_ptracer58_min        =   9.5459218922750E-37
(PID.TID 0000.0001) %MON trcstat_ptracer58_mean       =   2.2007148868379E-07
(PID.TID 0000.0001) %MON trcstat_ptracer58_sd         =   1.1543517277067E-06
(PID.TID 0000.0001) %MON trcstat_ptracer58_del2       =   0.0000000000000E+00
(PID.TID 0000.0001) %MON trcstat_ptracer59_max        =   7.3529647638621E-06
(PID.TID 0000.0001) %MON trcstat_ptracer59_min        =   3.2877078143340E-39
(PID.TID 0000.0001) %MON trcstat_ptracer59_mean       =   2.1923785772239E-07
(PID.TID 0000.0001) %MON trcstat_ptracer59_sd         =   1.1494149263196E-06
(PID.TID 0000.0001) %MON trcstat_ptracer59_del2       =   0.0000000000000E+00
(PID.TID 0000.0001) %MON trcstat_ptracer60_max        =   7.3154912431481E-06
(PID.TID 0000.0001) %MON trcstat_ptracer60_min        =   3.2877078143340E-39
(PID.TID 0000.0001) %MON trcstat_ptracer60_mean       =   2.1812816178258E-07
(PID.TID 0000.0001) %MON trcstat_ptracer60_sd         =   1.1436004539493E-06
(PID.TID 0000.0001) %MON trcstat_ptracer60_del2       =   0.0000000000000E+00
(PID.TID 0000.0001) %MON trcstat_ptracer61_max        =   7.3806875159050E-06
(PID.TID 0000.0001) %MON trcstat_ptracer61_min        =   9.5459218922750E-37
(PID.TID 0000.0001) %MON trcstat_ptracer61_mean       =   2.1988770297237E-07
(PID.TID 0000.0001) %MON trcstat_ptracer61_sd         =   1.1532471611416E-06
(PID.TID 0000.0001) %MON trcstat_ptracer61_del2       =   0.0000000000000E+00
(PID.TID 0000.0001) %MON trcstat_ptracer62_max        =   7.3153367269738E-06
(PID.TID 0000.0001) %MON trcstat_ptracer62_min        =   9.5459218922750E-37
(PID.TID 0000.0001) %MON trcstat_ptracer62_mean       =   2.1812816179845E-07
(PID.TID 0000.0001) %MON trcstat_ptracer62_sd         =   1.1434544520017E-06
(PID.TID 0000.0001) %MON trcstat_ptracer62_del2       =   0.0000000000000E+00
(PID.TID 0000.0001) %MON trcstat_ptracer63_max        =   7.3154912431489E-06
(PID.TID 0000.0001) %MON trcstat_ptracer63_min        =   3.2877078143340E-39
(PID.TID 0000.0001) %MON trcstat_ptracer63_mean       =   2.1812816178260E-07
(PID.TID 0000.0001) %MON trcstat_ptracer63_sd         =   1.1436004539494E-06
(PID.TID 0000.0001) %MON trcstat_ptracer63_del2       =   0.0000000000000E+00
(PID.TID 0000.0001) %MON trcstat_ptracer64_max        =   7.3716990323263E-06
(PID.TID 0000.0001) %MON trcstat_ptracer64_min        =   3.2877078143340E-39
(PID.TID 0000.0001) %MON trcstat_ptracer64_mean       =   2.1963972747243E-07
(PID.TID 0000.0001) %MON trcstat_ptracer64_sd         =   1.1519046380651E-06
(PID.TID 0000.0001) %MON trcstat_ptracer64_del2       =   0.0000000000000E+00
(PID.TID 0000.0001) %MON trcstat_ptracer65_max        =   7.3560885577446E-06
(PID.TID 0000.0001) %MON trcstat_ptracer65_min        =   3.2877078143340E-39
(PID.TID 0000.0001) %MON trcstat_ptracer65_mean       =   2.1930240936692E-07
(PID.TID 0000.0001) %MON trcstat_ptracer65_sd         =   1.1500514468142E-06
(PID.TID 0000.0001) %MON trcstat_ptracer65_del2       =   0.0000000000000E+00
(PID.TID 0000.0001) %MON trcstat_ptracer66_max        =   7.3153367264060E-06
(PID.TID 0000.0001) %MON trcstat_ptracer66_min        =   9.5459218922750E-37
(PID.TID 0000.0001) %MON trcstat_ptracer66_mean       =   2.1812816178259E-07
(PID.TID 0000.0001) %MON trcstat_ptracer66_sd         =   1.1434544519163E-06
(PID.TID 0000.0001) %MON trcstat_ptracer66_del2       =   0.0000000000000E+00
(PID.TID 0000.0001) %MON trcstat_ptracer67_max        =   7.3350795738306E-06
(PID.TID 0000.0001) %MON trcstat_ptracer67_min        =   9.5459218922750E-37
(PID.TID 0000.0001) %MON trcstat_ptracer67_mean       =   2.1885958883498E-07
(PID.TID 0000.0001) %MON trcstat_ptracer67_sd         =   1.1469983341661E-06
(PID.TID 0000.0001) %MON trcstat_ptracer67_del2       =   0.0000000000000E+00
(PID.TID 0000.0001) %MON trcstat_ptracer68_max        =   7.3154912431484E-06
(PID.TID 0000.0001) %MON trcstat_ptracer68_min        =   3.2877078143340E-39
(PID.TID 0000.0001) %MON trcstat_ptracer68_mean       =   2.1812816178259E-07
(PID.TID 0000.0001) %MON trcstat_ptracer68_sd         =   1.1436004539493E-06
(PID.TID 0000.0001) %MON trcstat_ptracer68_del2       =   0.0000000000000E+00
(PID.TID 0000.0001) %MON trcstat_ptracer69_max        =   7.3768102118567E-06
(PID.TID 0000.0001) %MON trcstat_ptracer69_min        =   9.5459218922750E-37
(PID.TID 0000.0001) %MON trcstat_ptracer69_mean       =   2.1976238071078E-07
(PID.TID 0000.0001) %MON trcstat_ptracer69_sd         =   1.1526049583711E-06
(PID.TID 0000.0001) %MON trcstat_ptracer69_del2       =   0.0000000000000E+00
(PID.TID 0000.0001) %MON trcstat_ptracer70_max        =   7.3153367264060E-06
(PID.TID 0000.0001) %MON trcstat_ptracer70_min        =   9.5459218922750E-37
(PID.TID 0000.0001) %MON trcstat_ptracer70_mean       =   2.1812844052027E-07
(PID.TID 0000.0001) %MON trcstat_ptracer70_sd         =   1.1434544152869E-06
(PID.TID 0000.0001) %MON trcstat_ptracer70_del2       =   0.0000000000000E+00
(PID.TID 0000.0001) %MON trcstat_ptracer71_max        =   7.3266948038028E-06
(PID.TID 0000.0001) %MON trcstat_ptracer71_min        =   9.5459218922750E-37
(PID.TID 0000.0001) %MON trcstat_ptracer71_mean       =   2.1863461338312E-07
(PID.TID 0000.0001) %MON trcstat_ptracer71_sd         =   1.1457651887460E-06
(PID.TID 0000.0001) %MON trcstat_ptracer71_del2       =   0.0000000000000E+00
(PID.TID 0000.0001) %MON trcstat_ptracer72_max        =   7.3153367269730E-06
(PID.TID 0000.0001) %MON trcstat_ptracer72_min        =   9.5459218922750E-37
(PID.TID 0000.0001) %MON trcstat_ptracer72_mean       =   2.1812816179843E-07
(PID.TID 0000.0001) %MON trcstat_ptracer72_sd         =   1.1434544520016E-06
(PID.TID 0000.0001) %MON trcstat_ptracer72_del2       =   0.0000000000000E+00
(PID.TID 0000.0001) %MON trcstat_ptracer73_max        =   7.3618667379379E-06
(PID.TID 0000.0001) %MON trcstat_ptracer73_min        =   3.2877078143340E-39
(PID.TID 0000.0001) %MON trcstat_ptracer73_mean       =   2.1944398713286E-07
(PID.TID 0000.0001) %MON trcstat_ptracer73_sd         =   1.1508675973001E-06
(PID.TID 0000.0001) %MON trcstat_ptracer73_del2       =   0.0000000000000E+00
(PID.TID 0000.0001) %MON trcstat_ptracer74_max        =   7.3920695307284E-06
(PID.TID 0000.0001) %MON trcstat_ptracer74_min        =   9.5459218922750E-37
(PID.TID 0000.0001) %MON trcstat_ptracer74_mean       =   2.2012063710143E-07
(PID.TID 0000.0001) %MON trcstat_ptracer74_sd         =   1.1547239403382E-06
(PID.TID 0000.0001) %MON trcstat_ptracer74_del2       =   0.0000000000000E+00
(PID.TID 0000.0001) %MON trcstat_ptracer75_max        =   7.3726002239348E-06
(PID.TID 0000.0001) %MON trcstat_ptracer75_min        =   9.5459218922750E-37
(PID.TID 0000.0001) %MON trcstat_ptracer75_mean       =   2.1969302796375E-07
(PID.TID 0000.0001) %MON trcstat_ptracer75_sd         =   1.1520441244333E-06
(PID.TID 0000.0001) %MON trcstat_ptracer75_del2       =   0.0000000000000E+00
(PID.TID 0000.0001) %MON trcstat_ptracer76_max        =   7.3154912431484E-06
(PID.TID 0000.0001) %MON trcstat_ptracer76_min        =   3.2877078143340E-39
(PID.TID 0000.0001) %MON trcstat_ptracer76_mean       =   2.1813416720000E-07
(PID.TID 0000.0001) %MON trcstat_ptracer76_sd         =   1.1436149195643E-06
(PID.TID 0000.0001) %MON trcstat_ptracer76_del2       =   0.0000000000000E+00
(PID.TID 0000.0001) %MON trcstat_ptracer77_max        =   7.3869070238773E-06
(PID.TID 0000.0001) %MON trcstat_ptracer77_min        =   9.5459218922750E-37
(PID.TID 0000.0001) %MON trcstat_ptracer77_mean       =   2.2008213426745E-07
(PID.TID 0000.0001) %MON trcstat_ptracer77_sd         =   1.1541734456865E-06
(PID.TID 0000.0001) %MON trcstat_ptracer77_del2       =   0.0000000000000E+00
(PID.TID 0000.0001) %MON trcstat_ptracer78_max        =   7.3453170853678E-06
(PID.TID 0000.0001) %MON trcstat_ptracer78_min        =   9.5459218922750E-37
(PID.TID 0000.0001) %MON trcstat_ptracer78_mean       =   2.1911281602840E-07
(PID.TID 0000.0001) %MON trcstat_ptracer78_sd         =   1.1484444339346E-06
(PID.TID 0000.0001) %MON trcstat_ptracer78_del2       =   0.0000000000000E+00
(PID.TID 0000.0001) %MON trcstat_ptracer79_max        =   7.3154912431496E-06
(PID.TID 0000.0001) %MON trcstat_ptracer79_min        =   3.2877078143340E-39
(PID.TID 0000.0001) %MON trcstat_ptracer79_mean       =   2.1812816178262E-07
(PID.TID 0000.0001) %MON trcstat_ptracer79_sd         =   1.1436004539495E-06
(PID.TID 0000.0001) %MON trcstat_ptracer79_del2       =   0.0000000000000E+00
(PID.TID 0000.0001) %MON trcstat_ptracer80_max        =   7.3618743414868E-06
(PID.TID 0000.0001) %MON trcstat_ptracer80_min        =   3.2877078143340E-39
(PID.TID 0000.0001) %MON trcstat_ptracer80_mean       =   2.1939199918597E-07
(PID.TID 0000.0001) %MON trcstat_ptracer80_sd         =   1.1507469933305E-06
(PID.TID 0000.0001) %MON trcstat_ptracer80_del2       =   0.0000000000000E+00
(PID.TID 0000.0001) %MON trcstat_ptracer81_max        =   7.3154912431499E-06
(PID.TID 0000.0001) %MON trcstat_ptracer81_min        =   3.2877078143340E-39
(PID.TID 0000.0001) %MON trcstat_ptracer81_mean       =   2.1812816178263E-07
(PID.TID 0000.0001) %MON trcstat_ptracer81_sd         =   1.1436004539495E-06
(PID.TID 0000.0001) %MON trcstat_ptracer81_del2       =   0.0000000000000E+00
(PID.TID 0000.0001) %MON trcstat_ptracer82_max        =   7.3153367264068E-06
(PID.TID 0000.0001) %MON trcstat_ptracer82_min        =   9.5459218922750E-37
(PID.TID 0000.0001) %MON trcstat_ptracer82_mean       =   2.1812816178261E-07
(PID.TID 0000.0001) %MON trcstat_ptracer82_sd         =   1.1434544519164E-06
(PID.TID 0000.0001) %MON trcstat_ptracer82_del2       =   0.0000000000000E+00
(PID.TID 0000.0001) %MON trcstat_ptracer83_max        =   7.3153367269740E-06
(PID.TID 0000.0001) %MON trcstat_ptracer83_min        =   9.5459218922750E-37
(PID.TID 0000.0001) %MON trcstat_ptracer83_mean       =   2.1812816179846E-07
(PID.TID 0000.0001) %MON trcstat_ptracer83_sd         =   1.1434544520018E-06
(PID.TID 0000.0001) %MON trcstat_ptracer83_del2       =   0.0000000000000E+00
(PID.TID 0000.0001) %MON trcstat_ptracer84_max        =   7.3154912431482E-06
(PID.TID 0000.0001) %MON trcstat_ptracer84_min        =   3.2877078143340E-39
(PID.TID 0000.0001) %MON trcstat_ptracer84_mean       =   2.1813732674896E-07
(PID.TID 0000.0001) %MON trcstat_ptracer84_sd         =   1.1436111549046E-06
(PID.TID 0000.0001) %MON trcstat_ptracer84_del2       =   0.0000000000000E+00
(PID.TID 0000.0001) %MON trcstat_ptracer85_max        =   7.3154912431487E-06
(PID.TID 0000.0001) %MON trcstat_ptracer85_min        =   3.2877078143340E-39
(PID.TID 0000.0001) %MON trcstat_ptracer85_mean       =   2.1812816178259E-07
(PID.TID 0000.0001) %MON trcstat_ptracer85_sd         =   1.1436004539494E-06
(PID.TID 0000.0001) %MON trcstat_ptracer85_del2       =   0.0000000000000E+00
(PID.TID 0000.0001) %MON trcstat_ptracer86_max        =   7.3154912431493E-06
(PID.TID 0000.0001) %MON trcstat_ptracer86_min        =   3.2877078143340E-39
(PID.TID 0000.0001) %MON trcstat_ptracer86_mean       =   2.1812816178261E-07
(PID.TID 0000.0001) %MON trcstat_ptracer86_sd         =   1.1436004539494E-06
(PID.TID 0000.0001) %MON trcstat_ptracer86_del2       =   0.0000000000000E+00
(PID.TID 0000.0001) %MON trcstat_ptracer87_max        =   7.3153367264059E-06
(PID.TID 0000.0001) %MON trcstat_ptracer87_min        =   9.5459218922750E-37
(PID.TID 0000.0001) %MON trcstat_ptracer87_mean       =   2.1812816178259E-07
(PID.TID 0000.0001) %MON trcstat_ptracer87_sd         =   1.1434544519163E-06
(PID.TID 0000.0001) %MON trcstat_ptracer87_del2       =   0.0000000000000E+00
(PID.TID 0000.0001) %MON trcstat_ptracer88_max        =   7.3153367269735E-06
(PID.TID 0000.0001) %MON trcstat_ptracer88_min        =   9.5459218922750E-37
(PID.TID 0000.0001) %MON trcstat_ptracer88_mean       =   2.1825536977705E-07
(PID.TID 0000.0001) %MON trcstat_ptracer88_sd         =   1.1438660780443E-06
(PID.TID 0000.0001) %MON trcstat_ptracer88_del2       =   0.0000000000000E+00
(PID.TID 0000.0001) %MON trcstat_ptracer89_max        =   7.3153367264064E-06
(PID.TID 0000.0001) %MON trcstat_ptracer89_min        =   9.5459218922750E-37
(PID.TID 0000.0001) %MON trcstat_ptracer89_mean       =   2.1812861034134E-07
(PID.TID 0000.0001) %MON trcstat_ptracer89_sd         =   1.1434543941434E-06
(PID.TID 0000.0001) %MON trcstat_ptracer89_del2       =   0.0000000000000E+00
(PID.TID 0000.0001) %MON trcstat_ptracer90_max        =   7.3153367264058E-06
(PID.TID 0000.0001) %MON trcstat_ptracer90_min        =   9.5459218922750E-37
(PID.TID 0000.0001) %MON trcstat_ptracer90_mean       =   2.1812816178258E-07
(PID.TID 0000.0001) %MON trcstat_ptracer90_sd         =   1.1434544519163E-06
(PID.TID 0000.0001) %MON trcstat_ptracer90_del2       =   0.0000000000000E+00
(PID.TID 0000.0001) %MON trcstat_ptracer91_max        =   7.3511971715558E-06
(PID.TID 0000.0001) %MON trcstat_ptracer91_min        =   9.5459218922750E-37
(PID.TID 0000.0001) %MON trcstat_ptracer91_mean       =   2.1917273220449E-07
(PID.TID 0000.0001) %MON trcstat_ptracer91_sd         =   1.1489836058108E-06
(PID.TID 0000.0001) %MON trcstat_ptracer91_del2       =   0.0000000000000E+00
(PID.TID 0000.0001) %MON trcstat_ptracer92_max        =   7.3674038809713E-06
(PID.TID 0000.0001) %MON trcstat_ptracer92_min        =   3.2877078143340E-39
(PID.TID 0000.0001) %MON trcstat_ptracer92_mean       =   2.1948633924563E-07
(PID.TID 0000.0001) %MON trcstat_ptracer92_sd         =   1.1510957460515E-06
(PID.TID 0000.0001) %MON trcstat_ptracer92_del2       =   0.0000000000000E+00
(PID.TID 0000.0001) %MON trcstat_ptracer93_max        =   7.3154912431486E-06
(PID.TID 0000.0001) %MON trcstat_ptracer93_min        =   3.2877078143340E-39
(PID.TID 0000.0001) %MON trcstat_ptracer93_mean       =   2.1812816178259E-07
(PID.TID 0000.0001) %MON trcstat_ptracer93_sd         =   1.1436004539494E-06
(PID.TID 0000.0001) %MON trcstat_ptracer93_del2       =   0.0000000000000E+00
(PID.TID 0000.0001) %MON trcstat_ptracer94_max        =   7.3153367264059E-06
(PID.TID 0000.0001) %MON trcstat_ptracer94_min        =   9.5459218922750E-37
(PID.TID 0000.0001) %MON trcstat_ptracer94_mean       =   2.1812922646281E-07
(PID.TID 0000.0001) %MON trcstat_ptracer94_sd         =   1.1434543682732E-06
(PID.TID 0000.0001) %MON trcstat_ptracer94_del2       =   0.0000000000000E+00
(PID.TID 0000.0001) %MON trcstat_ptracer95_max        =   7.3154912431483E-06
(PID.TID 0000.0001) %MON trcstat_ptracer95_min        =   3.2877078143340E-39
(PID.TID 0000.0001) %MON trcstat_ptracer95_mean       =   2.1812858988302E-07
(PID.TID 0000.0001) %MON trcstat_ptracer95_sd         =   1.1436004117690E-06
(PID.TID 0000.0001) %MON trcstat_ptracer95_del2       =   0.0000000000000E+00
(PID.TID 0000.0001) %MON trcstat_ptracer96_max        =   7.3602739410630E-06
(PID.TID 0000.0001) %MON trcstat_ptracer96_min        =   3.2877078143340E-39
(PID.TID 0000.0001) %MON trcstat_ptracer96_mean       =   2.1944189190609E-07
(PID.TID 0000.0001) %MON trcstat_ptracer96_sd         =   1.1508167672093E-06
(PID.TID 0000.0001) %MON trcstat_ptracer96_del2       =   0.0000000000000E+00
(PID.TID 0000.0001) %MON trcstat_ptracer97_max        =   7.3154912431483E-06
(PID.TID 0000.0001) %MON trcstat_ptracer97_min        =   3.2877078143340E-39
(PID.TID 0000.0001) %MON trcstat_ptracer97_mean       =   2.1814262090269E-07
(PID.TID 0000.0001) %MON trcstat_ptracer97_sd         =   1.1436211351658E-06
(PID.TID 0000.0001) %MON trcstat_ptracer97_del2       =   0.0000000000000E+00
(PID.TID 0000.0001) %MON trcstat_ptracer98_max        =   7.3600510513497E-06
(PID.TID 0000.0001) %MON trcstat_ptracer98_min        =   3.2877078143340E-39
(PID.TID 0000.0001) %MON trcstat_ptracer98_mean       =   2.1936092886914E-07
(PID.TID 0000.0001) %MON trcstat_ptracer98_sd         =   1.1505677719090E-06
(PID.TID 0000.0001) %MON trcstat_ptracer98_del2       =   0.0000000000000E+00
(PID.TID 0000.0001) %MON trcstat_ptracer99_max        =   7.3154912431497E-06
(PID.TID 0000.0001) %MON trcstat_ptracer99_min        =   3.2877078143340E-39
(PID.TID 0000.0001) %MON trcstat_ptracer99_mean       =   2.1812816178262E-07
(PID.TID 0000.0001) %MON trcstat_ptracer99_sd         =   1.1436004539495E-06
(PID.TID 0000.0001) %MON trcstat_ptracer99_del2       =   0.0000000000000E+00
(PID.TID 0000.0001) // =======================================================
(PID.TID 0000.0001) // End MONITOR ptracers field statistics
(PID.TID 0000.0001) // =======================================================
time,SST,SSS,fu,fv,Q,E-P,i0,i1,a,b =   3.6000E+03  2.5678E+01  0.0000E+00  0.0000E+00  0.0000E+00  0.0000E+00  0.0000E+00    12     1  5.0139E-01  4.9861E-01
time,fu0,fu1,fu =   3.6000E+03  0.0000E+00  0.0000E+00  0.0000E+00  5.013888888888889E-01  4.986111111111111E-01
(PID.TID 0000.0001) // =======================================================
(PID.TID 0000.0001) // Begin MONITOR dynamic field statistics
(PID.TID 0000.0001) // =======================================================
(PID.TID 0000.0001) %MON time_tsnumber                =                     2
(PID.TID 0000.0001) %MON time_secondsf                =   7.2000000000000E+03
(PID.TID 0000.0001) %MON dynstat_eta_max              =   0.0000000000000E+00
(PID.TID 0000.0001) %MON dynstat_eta_min              =   0.0000000000000E+00
(PID.TID 0000.0001) %MON dynstat_eta_mean             =   0.0000000000000E+00
(PID.TID 0000.0001) %MON dynstat_eta_sd               =   0.0000000000000E+00
(PID.TID 0000.0001) %MON dynstat_eta_del2             =   0.0000000000000E+00
(PID.TID 0000.0001) %MON dynstat_uvel_max             =   0.0000000000000E+00
(PID.TID 0000.0001) %MON dynstat_uvel_min             =   0.0000000000000E+00
(PID.TID 0000.0001) %MON dynstat_uvel_mean            =   0.0000000000000E+00
(PID.TID 0000.0001) %MON dynstat_uvel_sd              =   0.0000000000000E+00
(PID.TID 0000.0001) %MON dynstat_uvel_del2            =   0.0000000000000E+00
(PID.TID 0000.0001) %MON dynstat_vvel_max             =   0.0000000000000E+00
(PID.TID 0000.0001) %MON dynstat_vvel_min             =   0.0000000000000E+00
(PID.TID 0000.0001) %MON dynstat_vvel_mean            =   0.0000000000000E+00
(PID.TID 0000.0001) %MON dynstat_vvel_sd              =   0.0000000000000E+00
(PID.TID 0000.0001) %MON dynstat_vvel_del2            =   0.0000000000000E+00
(PID.TID 0000.0001) %MON dynstat_wvel_max             =   0.0000000000000E+00
(PID.TID 0000.0001) %MON dynstat_wvel_min             =   0.0000000000000E+00
(PID.TID 0000.0001) %MON dynstat_wvel_mean            =   0.0000000000000E+00
(PID.TID 0000.0001) %MON dynstat_wvel_sd              =   0.0000000000000E+00
(PID.TID 0000.0001) %MON dynstat_wvel_del2            =   0.0000000000000E+00
(PID.TID 0000.0001) %MON dynstat_theta_max            =   2.6326133202983E+01
(PID.TID 0000.0001) %MON dynstat_theta_min            =   2.6737005429265E+00
(PID.TID 0000.0001) %MON dynstat_theta_mean           =   5.4735411526788E+00
(PID.TID 0000.0001) %MON dynstat_theta_sd             =   5.1969661225680E+00
(PID.TID 0000.0001) %MON dynstat_theta_del2           =   0.0000000000000E+00
(PID.TID 0000.0001) %MON dynstat_salt_max             =   3.5000000000000E+01
(PID.TID 0000.0001) %MON dynstat_salt_min             =   3.5000000000000E+01
(PID.TID 0000.0001) %MON dynstat_salt_mean            =   3.5000000000000E+01
(PID.TID 0000.0001) %MON dynstat_salt_sd              =   7.1054273576010E-15
(PID.TID 0000.0001) %MON dynstat_salt_del2            =   0.0000000000000E+00
(PID.TID 0000.0001) %MON dynstat_sst_max              =   2.6326133202983E+01
(PID.TID 0000.0001) %MON dynstat_sst_min              =   2.6326133202983E+01
(PID.TID 0000.0001) %MON dynstat_sst_mean             =   2.6326133202983E+01
(PID.TID 0000.0001) %MON dynstat_sst_sd               =   0.0000000000000E+00
(PID.TID 0000.0001) %MON dynstat_sst_del2             =   0.0000000000000E+00
(PID.TID 0000.0001) %MON dynstat_sss_max              =   3.5000000000000E+01
(PID.TID 0000.0001) %MON dynstat_sss_min              =   3.5000000000000E+01
(PID.TID 0000.0001) %MON dynstat_sss_mean             =   3.5000000000000E+01
(PID.TID 0000.0001) %MON dynstat_sss_sd               =   0.0000000000000E+00
(PID.TID 0000.0001) %MON dynstat_sss_del2             =   0.0000000000000E+00
(PID.TID 0000.0001) %MON extforcing_qnet_max          =   0.0000000000000E+00
(PID.TID 0000.0001) %MON extforcing_qnet_min          =   0.0000000000000E+00
(PID.TID 0000.0001) %MON extforcing_qnet_mean         =   0.0000000000000E+00
(PID.TID 0000.0001) %MON extforcing_qnet_sd           =   0.0000000000000E+00
(PID.TID 0000.0001) %MON extforcing_qnet_del2         =   0.0000000000000E+00
(PID.TID 0000.0001) %MON extforcing_qsw_max           =   0.0000000000000E+00
(PID.TID 0000.0001) %MON extforcing_qsw_min           =   0.0000000000000E+00
(PID.TID 0000.0001) %MON extforcing_qsw_mean          =   0.0000000000000E+00
(PID.TID 0000.0001) %MON extforcing_qsw_sd            =   0.0000000000000E+00
(PID.TID 0000.0001) %MON extforcing_qsw_del2          =   0.0000000000000E+00
(PID.TID 0000.0001) %MON extforcing_empmr_max         =   0.0000000000000E+00
(PID.TID 0000.0001) %MON extforcing_empmr_min         =   0.0000000000000E+00
(PID.TID 0000.0001) %MON extforcing_empmr_mean        =   0.0000000000000E+00
(PID.TID 0000.0001) %MON extforcing_empmr_sd          =   0.0000000000000E+00
(PID.TID 0000.0001) %MON extforcing_empmr_del2        =   0.0000000000000E+00
(PID.TID 0000.0001) %MON extforcing_fu_max            =   0.0000000000000E+00
(PID.TID 0000.0001) %MON extforcing_fu_min            =   0.0000000000000E+00
(PID.TID 0000.0001) %MON extforcing_fu_mean           =   0.0000000000000E+00
(PID.TID 0000.0001) %MON extforcing_fu_sd             =   0.0000000000000E+00
(PID.TID 0000.0001) %MON extforcing_fu_del2           =   0.0000000000000E+00
(PID.TID 0000.0001) %MON extforcing_fv_max            =   0.0000000000000E+00
(PID.TID 0000.0001) %MON extforcing_fv_min            =   0.0000000000000E+00
(PID.TID 0000.0001) %MON extforcing_fv_mean           =   0.0000000000000E+00
(PID.TID 0000.0001) %MON extforcing_fv_sd             =   0.0000000000000E+00
(PID.TID 0000.0001) %MON extforcing_fv_del2           =   0.0000000000000E+00
(PID.TID 0000.0001) %MON advcfl_uvel_max              =   0.0000000000000E+00
(PID.TID 0000.0001) %MON advcfl_vvel_max              =   0.0000000000000E+00
(PID.TID 0000.0001) %MON advcfl_wvel_max              =   0.0000000000000E+00
(PID.TID 0000.0001) %MON advcfl_W_hf_max              =   0.0000000000000E+00
(PID.TID 0000.0001) %MON pe_b_mean                    =   0.0000000000000E+00
(PID.TID 0000.0001) %MON ke_max                       =   0.0000000000000E+00
(PID.TID 0000.0001) %MON ke_mean                      =   0.0000000000000E+00
(PID.TID 0000.0001) %MON ke_vol                       =   4.1199767883485E+13
(PID.TID 0000.0001) %MON vort_r_min                   =   0.0000000000000E+00
(PID.TID 0000.0001) %MON vort_r_max                   =   0.0000000000000E+00
(PID.TID 0000.0001) %MON vort_a_mean                  =  -4.5067801836625E-05
(PID.TID 0000.0001) %MON vort_a_sd                    =  -4.1359030627651E-25
(PID.TID 0000.0001) %MON vort_p_mean                  =  -4.5067801836625E-05
(PID.TID 0000.0001) %MON vort_p_sd                    =   0.0000000000000E+00
(PID.TID 0000.0001) %MON surfExpan_theta_mean         =   0.0000000000000E+00
(PID.TID 0000.0001) %MON surfExpan_salt_mean          =   0.0000000000000E+00
(PID.TID 0000.0001) // =======================================================
(PID.TID 0000.0001) // End MONITOR dynamic field statistics
(PID.TID 0000.0001) // =======================================================
(PID.TID 0000.0001) // =======================================================
(PID.TID 0000.0001) // Begin MONITOR ptracer field statistics
(PID.TID 0000.0001) // =======================================================
(PID.TID 0000.0001) %MON trcstat_ptracer01_max        =   2.2436998357850E+00
(PID.TID 0000.0001) %MON trcstat_ptracer01_min        =   2.1025344440445E-01
(PID.TID 0000.0001) %MON trcstat_ptracer01_mean       =   1.5821339668127E+00
(PID.TID 0000.0001) %MON trcstat_ptracer01_sd         =   4.6735003609602E-01
(PID.TID 0000.0001) %MON trcstat_ptracer01_del2       =   0.0000000000000E+00
(PID.TID 0000.0001) %MON trcstat_ptracer02_max        =   3.3903496291100E+01
(PID.TID 0000.0001) %MON trcstat_ptracer02_min        =   4.6467982655436E-02
(PID.TID 0000.0001) %MON trcstat_ptracer02_mean       =   2.3502392414809E+01
(PID.TID 0000.0001) %MON trcstat_ptracer02_sd         =   7.8161947207924E+00
(PID.TID 0000.0001) %MON trcstat_ptracer02_del2       =   0.0000000000000E+00
(PID.TID 0000.0001) %MON trcstat_ptracer03_max        =   1.3002604311354E-03
(PID.TID 0000.0001) %MON trcstat_ptracer03_min        =   1.2999707842917E-03
(PID.TID 0000.0001) %MON trcstat_ptracer03_mean       =   1.2999718277292E-03
(PID.TID 0000.0001) %MON trcstat_ptracer03_sd         =   1.5466214876214E-08
(PID.TID 0000.0001) %MON trcstat_ptracer03_del2       =   0.0000000000000E+00
(PID.TID 0000.0001) %MON trcstat_ptracer04_max        =   3.9387401115092E+01
(PID.TID 0000.0001) %MON trcstat_ptracer04_min        =   1.2247962657103E+00
(PID.TID 0000.0001) %MON trcstat_ptracer04_mean       =   2.9621889904560E+01
(PID.TID 0000.0001) %MON trcstat_ptracer04_sd         =   1.1270585236984E+01
(PID.TID 0000.0001) %MON trcstat_ptracer04_del2       =   0.0000000000000E+00
(PID.TID 0000.0001) %MON trcstat_ptracer05_max        =   5.1122508881111E-03
(PID.TID 0000.0001) %MON trcstat_ptracer05_min        =   9.0074981356345E-35
(PID.TID 0000.0001) %MON trcstat_ptracer05_mean       =   2.1465047506948E-04
(PID.TID 0000.0001) %MON trcstat_ptracer05_sd         =   9.2411482425849E-04
(PID.TID 0000.0001) %MON trcstat_ptracer05_del2       =   0.0000000000000E+00
(PID.TID 0000.0001) %MON trcstat_ptracer06_max        =   8.1796014209778E-02
(PID.TID 0000.0001) %MON trcstat_ptracer06_min        =   1.4411997017015E-33
(PID.TID 0000.0001) %MON trcstat_ptracer06_mean       =   3.4344076011117E-03
(PID.TID 0000.0001) %MON trcstat_ptracer06_sd         =   1.4785837188136E-02
(PID.TID 0000.0001) %MON trcstat_ptracer06_del2       =   0.0000000000000E+00
(PID.TID 0000.0001) %MON trcstat_ptracer07_max        =   5.1122505288471E-06
(PID.TID 0000.0001) %MON trcstat_ptracer07_min        =   9.0074845991544E-38
(PID.TID 0000.0001) %MON trcstat_ptracer07_mean       =   2.1465047537573E-07
(PID.TID 0000.0001) %MON trcstat_ptracer07_sd         =   9.2411482391673E-07
(PID.TID 0000.0001) %MON trcstat_ptracer07_del2       =   0.0000000000000E+00
(PID.TID 0000.0001) %MON trcstat_ptracer08_max        =   1.0332613750725E-09
(PID.TID 0000.0001) %MON trcstat_ptracer08_min        =   1.1524772983301E-36
(PID.TID 0000.0001) %MON trcstat_ptracer08_mean       =   1.3664160536821E-10
(PID.TID 0000.0001) %MON trcstat_ptracer08_sd         =   2.4992708878834E-10
(PID.TID 0000.0001) %MON trcstat_ptracer08_del2       =   0.0000000000000E+00
(PID.TID 0000.0001) %MON trcstat_ptracer09_max        =   1.6532182001159E-08
(PID.TID 0000.0001) %MON trcstat_ptracer09_min        =   1.8439636773282E-35
(PID.TID 0000.0001) %MON trcstat_ptracer09_mean       =   2.1862656858914E-09
(PID.TID 0000.0001) %MON trcstat_ptracer09_sd         =   3.9988334206135E-09
(PID.TID 0000.0001) %MON trcstat_ptracer09_del2       =   0.0000000000000E+00
(PID.TID 0000.0001) %MON trcstat_ptracer10_max        =   1.0332613396137E-12
(PID.TID 0000.0001) %MON trcstat_ptracer10_min        =   1.1524772155901E-39
(PID.TID 0000.0001) %MON trcstat_ptracer10_mean       =   1.3664159634967E-13
(PID.TID 0000.0001) %MON trcstat_ptracer10_sd         =   2.4992707453381E-13
(PID.TID 0000.0001) %MON trcstat_ptracer10_del2       =   0.0000000000000E+00
(PID.TID 0000.0001) %MON trcstat_ptracer11_max        =   4.2425781638184E-09
(PID.TID 0000.0001) %MON trcstat_ptracer11_min        =   6.7894135940394E-36
(PID.TID 0000.0001) %MON trcstat_ptracer11_mean       =   5.1428159160681E-10
(PID.TID 0000.0001) %MON trcstat_ptracer11_sd         =   1.0349936471454E-09
(PID.TID 0000.0001) %MON trcstat_ptracer11_del2       =   0.0000000000000E+00
(PID.TID 0000.0001) %MON trcstat_ptracer12_max        =   1.0332586299043E-09
(PID.TID 0000.0001) %MON trcstat_ptracer12_min        =   1.1524772983296E-36
(PID.TID 0000.0001) %MON trcstat_ptracer12_mean       =   1.3664152710209E-10
(PID.TID 0000.0001) %MON trcstat_ptracer12_sd         =   2.4992682635507E-10
(PID.TID 0000.0001) %MON trcstat_ptracer12_del2       =   0.0000000000000E+00
(PID.TID 0000.0001) %MON trcstat_ptracer13_max        =   1.6532138078469E-08
(PID.TID 0000.0001) %MON trcstat_ptracer13_min        =   1.8439636773273E-35
(PID.TID 0000.0001) %MON trcstat_ptracer13_mean       =   2.1862644336335E-09
(PID.TID 0000.0001) %MON trcstat_ptracer13_sd         =   3.9988292216811E-09
(PID.TID 0000.0001) %MON trcstat_ptracer13_del2       =   0.0000000000000E+00
(PID.TID 0000.0001) %MON trcstat_ptracer14_max        =   1.0332585944456E-12
(PID.TID 0000.0001) %MON trcstat_ptracer14_min        =   1.1524772155896E-39
(PID.TID 0000.0001) %MON trcstat_ptracer14_mean       =   1.3664151808355E-13
(PID.TID 0000.0001) %MON trcstat_ptracer14_sd         =   2.4992681210052E-13
(PID.TID 0000.0001) %MON trcstat_ptracer14_del2       =   0.0000000000000E+00
(PID.TID 0000.0001) %MON trcstat_ptracer15_max        =   4.2425781640196E-09
(PID.TID 0000.0001) %MON trcstat_ptracer15_min        =   6.7894135940404E-36
(PID.TID 0000.0001) %MON trcstat_ptracer15_mean       =   5.1428929340056E-10
(PID.TID 0000.0001) %MON trcstat_ptracer15_sd         =   1.0349898212005E-09
(PID.TID 0000.0001) %MON trcstat_ptracer15_del2       =   0.0000000000000E+00
(PID.TID 0000.0001) %MON trcstat_ptracer16_max        =   2.7199710269509E-04
(PID.TID 0000.0001) %MON trcstat_ptracer16_min        =   1.1748670965339E-06
(PID.TID 0000.0001) %MON trcstat_ptracer16_mean       =   7.8848470192705E-05
(PID.TID 0000.0001) %MON trcstat_ptracer16_sd         =   9.6492268840663E-05
(PID.TID 0000.0001) %MON trcstat_ptracer16_del2       =   0.0000000000000E+00
(PID.TID 0000.0001) %MON trcstat_ptracer17_max        =   4.3519536431214E-03
(PID.TID 0000.0001) %MON trcstat_ptracer17_min        =   1.8797873544542E-05
(PID.TID 0000.0001) %MON trcstat_ptracer17_mean       =   1.2615755230833E-03
(PID.TID 0000.0001) %MON trcstat_ptracer17_sd         =   1.5438763014506E-03
(PID.TID 0000.0001) %MON trcstat_ptracer17_del2       =   0.0000000000000E+00
(PID.TID 0000.0001) %MON trcstat_ptracer18_max        =   2.7199711852782E-07
(PID.TID 0000.0001) %MON trcstat_ptracer18_min        =   1.1748669679955E-09
(PID.TID 0000.0001) %MON trcstat_ptracer18_mean       =   7.8848470718447E-08
(PID.TID 0000.0001) %MON trcstat_ptracer18_sd         =   9.6492270896946E-08
(PID.TID 0000.0001) %MON trcstat_ptracer18_del2       =   0.0000000000000E+00
(PID.TID 0000.0001) %MON trcstat_ptracer19_max        =   1.6246073438269E-02
(PID.TID 0000.0001) %MON trcstat_ptracer19_min        =   1.1391880996625E-03
(PID.TID 0000.0001) %MON trcstat_ptracer19_mean       =   5.4884389201676E-03
(PID.TID 0000.0001) %MON trcstat_ptracer19_sd         =   5.1699282818789E-03
(PID.TID 0000.0001) %MON trcstat_ptracer19_del2       =   0.0000000000000E+00
(PID.TID 0000.0001) %MON trcstat_ptracer20_max        =   2.5618652518785E-02
(PID.TID 0000.0001) %MON trcstat_ptracer20_min        =   1.8764847993847E-07
(PID.TID 0000.0001) %MON trcstat_ptracer20_mean       =   6.0438347212383E-04
(PID.TID 0000.0001) %MON trcstat_ptracer20_sd         =   3.2499919162071E-03
(PID.TID 0000.0001) %MON trcstat_ptracer20_del2       =   0.0000000000000E+00
(PID.TID 0000.0001) %MON trcstat_ptracer21_max        =   1.8365314426428E-02
(PID.TID 0000.0001) %MON trcstat_ptracer21_min        =   3.8786224039580E-06
(PID.TID 0000.0001) %MON trcstat_ptracer21_mean       =   6.0481710367957E-04
(PID.TID 0000.0001) %MON trcstat_ptracer21_sd         =   1.9451384603995E-03
(PID.TID 0000.0001) %MON trcstat_ptracer21_del2       =   0.0000000000000E+00
(PID.TID 0000.0001) %MON trcstat_ptracer22_max        =   7.3155293466821E-06
(PID.TID 0000.0001) %MON trcstat_ptracer22_min        =   6.9529747233172E-34
(PID.TID 0000.0001) %MON trcstat_ptracer22_mean       =   2.1844025092750E-07
(PID.TID 0000.0001) %MON trcstat_ptracer22_sd         =   1.1444091396042E-06
(PID.TID 0000.0001) %MON trcstat_ptracer22_del2       =   0.0000000000000E+00
(PID.TID 0000.0001) %MON trcstat_ptracer23_max        =   7.4547592743916E-06
(PID.TID 0000.0001) %MON trcstat_ptracer23_min        =   6.9529747233172E-34
(PID.TID 0000.0001) %MON trcstat_ptracer23_mean       =   2.2173855389028E-07
(PID.TID 0000.0001) %MON trcstat_ptracer23_sd         =   1.1639118174031E-06
(PID.TID 0000.0001) %MON trcstat_ptracer23_del2       =   0.0000000000000E+00
(PID.TID 0000.0001) %MON trcstat_ptracer24_max        =   7.2849549268297E-06
(PID.TID 0000.0001) %MON trcstat_ptracer24_min        =   1.6411352426155E-38
(PID.TID 0000.0001) %MON trcstat_ptracer24_mean       =   2.1721929438934E-07
(PID.TID 0000.0001) %MON trcstat_ptracer24_sd         =   1.1388296549320E-06
(PID.TID 0000.0001) %MON trcstat_ptracer24_del2       =   0.0000000000000E+00
(PID.TID 0000.0001) %MON trcstat_ptracer25_max        =   7.3745353733375E-06
(PID.TID 0000.0001) %MON trcstat_ptracer25_min        =   1.6411352426155E-38
(PID.TID 0000.0001) %MON trcstat_ptracer25_mean       =   2.1974089310125E-07
(PID.TID 0000.0001) %MON trcstat_ptracer25_sd         =   1.1528849295674E-06
(PID.TID 0000.0001) %MON trcstat_ptracer25_del2       =   0.0000000000000E+00
(PID.TID 0000.0001) %MON trcstat_ptracer26_max        =   7.4146489012045E-06
(PID.TID 0000.0001) %MON trcstat_ptracer26_min        =   6.9529747233172E-34
(PID.TID 0000.0001) %MON trcstat_ptracer26_mean       =   2.2068221333214E-07
(PID.TID 0000.0001) %MON trcstat_ptracer26_sd         =   1.1578672881014E-06
(PID.TID 0000.0001) %MON trcstat_ptracer26_del2       =   0.0000000000000E+00
(PID.TID 0000.0001) %MON trcstat_ptracer27_max        =   7.2849549268300E-06
(PID.TID 0000.0001) %MON trcstat_ptracer27_min        =   1.6411352426155E-38
(PID.TID 0000.0001) %MON trcstat_ptracer27_mean       =   2.1721929438935E-07
(PID.TID 0000.0001) %MON trcstat_ptracer27_sd         =   1.1388296549321E-06
(PID.TID 0000.0001) %MON trcstat_ptracer27_del2       =   0.0000000000000E+00
(PID.TID 0000.0001) %MON trcstat_ptracer28_max        =   7.3778860446033E-06
(PID.TID 0000.0001) %MON trcstat_ptracer28_min        =   1.6411352426155E-38
(PID.TID 0000.0001) %MON trcstat_ptracer28_mean       =   2.1995614807404E-07
(PID.TID 0000.0001) %MON trcstat_ptracer28_sd         =   1.1538483956091E-06
(PID.TID 0000.0001) %MON trcstat_ptracer28_del2       =   0.0000000000000E+00
(PID.TID 0000.0001) %MON trcstat_ptracer29_max        =   7.3447683426248E-06
(PID.TID 0000.0001) %MON trcstat_ptracer29_min        =   1.6411352426155E-38
(PID.TID 0000.0001) %MON trcstat_ptracer29_mean       =   2.1860616892933E-07
(PID.TID 0000.0001) %MON trcstat_ptracer29_sd         =   1.1471279327222E-06
(PID.TID 0000.0001) %MON trcstat_ptracer29_del2       =   0.0000000000000E+00
(PID.TID 0000.0001) %MON trcstat_ptracer30_max        =   7.2849549268304E-06
(PID.TID 0000.0001) %MON trcstat_ptracer30_min        =   1.6411352426155E-38
(PID.TID 0000.0001) %MON trcstat_ptracer30_mean       =   2.1721978111880E-07
(PID.TID 0000.0001) %MON trcstat_ptracer30_sd         =   1.1388295983675E-06
(PID.TID 0000.0001) %MON trcstat_ptracer30_del2       =   0.0000000000000E+00
(PID.TID 0000.0001) %MON trcstat_ptracer31_max        =   7.3609017932762E-06
(PID.TID 0000.0001) %MON trcstat_ptracer31_min        =   1.6411352426155E-38
(PID.TID 0000.0001) %MON trcstat_ptracer31_mean       =   2.1935174089663E-07
(PID.TID 0000.0001) %MON trcstat_ptracer31_sd         =   1.1508284135818E-06
(PID.TID 0000.0001) %MON trcstat_ptracer31_del2       =   0.0000000000000E+00
(PID.TID 0000.0001) %MON trcstat_ptracer32_max        =   7.2846474369368E-06
(PID.TID 0000.0001) %MON trcstat_ptracer32_min        =   6.9529747233171E-34
(PID.TID 0000.0001) %MON trcstat_ptracer32_mean       =   2.1721929438935E-07
(PID.TID 0000.0001) %MON trcstat_ptracer32_sd         =   1.1385393840088E-06
(PID.TID 0000.0001) %MON trcstat_ptracer32_del2       =   0.0000000000000E+00
(PID.TID 0000.0001) %MON trcstat_ptracer33_max        =   7.3774715462098E-06
(PID.TID 0000.0001) %MON trcstat_ptracer33_min        =   1.6411352426155E-38
(PID.TID 0000.0001) %MON trcstat_ptracer33_mean       =   2.1988253519537E-07
(PID.TID 0000.0001) %MON trcstat_ptracer33_sd         =   1.1529061894520E-06
(PID.TID 0000.0001) %MON trcstat_ptracer33_del2       =   0.0000000000000E+00
(PID.TID 0000.0001) %MON trcstat_ptracer34_max        =   7.4303185944036E-06
(PID.TID 0000.0001) %MON trcstat_ptracer34_min        =   6.9529747233171E-34
(PID.TID 0000.0001) %MON trcstat_ptracer34_mean       =   2.2110845619022E-07
(PID.TID 0000.0001) %MON trcstat_ptracer34_sd         =   1.1600883626642E-06
(PID.TID 0000.0001) %MON trcstat_ptracer34_del2       =   0.0000000000000E+00
(PID.TID 0000.0001) %MON trcstat_ptracer35_max        =   7.2846474380674E-06
(PID.TID 0000.0001) %MON trcstat_ptracer35_min        =   6.9529747233172E-34
(PID.TID 0000.0001) %MON trcstat_ptracer35_mean       =   2.1721929442094E-07
(PID.TID 0000.0001) %MON trcstat_ptracer35_sd         =   1.1385393841789E-06
(PID.TID 0000.0001) %MON trcstat_ptracer35_del2       =   0.0000000000000E+00
(PID.TID 0000.0001) %MON trcstat_ptracer36_max        =   7.2849549268292E-06
(PID.TID 0000.0001) %MON trcstat_ptracer36_min        =   1.6411352426155E-38
(PID.TID 0000.0001) %MON trcstat_ptracer36_mean       =   2.1721929438932E-07
(PID.TID 0000.0001) %MON trcstat_ptracer36_sd         =   1.1388296549319E-06
(PID.TID 0000.0001) %MON trcstat_ptracer36_del2       =   0.0000000000000E+00
(PID.TID 0000.0001) %MON trcstat_ptracer37_max        =   7.2849549268295E-06
(PID.TID 0000.0001) %MON trcstat_ptracer37_min        =   1.6411352426155E-38
(PID.TID 0000.0001) %MON trcstat_ptracer37_mean       =   2.1721929438933E-07
(PID.TID 0000.0001) %MON trcstat_ptracer37_sd         =   1.1388296549320E-06
(PID.TID 0000.0001) %MON trcstat_ptracer37_del2       =   0.0000000000000E+00
(PID.TID 0000.0001) %MON trcstat_ptracer38_max        =   7.2849549268293E-06
(PID.TID 0000.0001) %MON trcstat_ptracer38_min        =   1.6411352426155E-38
(PID.TID 0000.0001) %MON trcstat_ptracer38_mean       =   2.1721929438933E-07
(PID.TID 0000.0001) %MON trcstat_ptracer38_sd         =   1.1388296549319E-06
(PID.TID 0000.0001) %MON trcstat_ptracer38_del2       =   0.0000000000000E+00
(PID.TID 0000.0001) %MON trcstat_ptracer39_max        =   7.2849549268297E-06
(PID.TID 0000.0001) %MON trcstat_ptracer39_min        =   1.6411352426155E-38
(PID.TID 0000.0001) %MON trcstat_ptracer39_mean       =   2.1721929438934E-07
(PID.TID 0000.0001) %MON trcstat_ptracer39_sd         =   1.1388296549320E-06
(PID.TID 0000.0001) %MON trcstat_ptracer39_del2       =   0.0000000000000E+00
(PID.TID 0000.0001) %MON trcstat_ptracer40_max        =   7.2849549268311E-06
(PID.TID 0000.0001) %MON trcstat_ptracer40_min        =   1.6411352426155E-38
(PID.TID 0000.0001) %MON trcstat_ptracer40_mean       =   2.1721929438938E-07
(PID.TID 0000.0001) %MON trcstat_ptracer40_sd         =   1.1388296549322E-06
(PID.TID 0000.0001) %MON trcstat_ptracer40_del2       =   0.0000000000000E+00
(PID.TID 0000.0001) %MON trcstat_ptracer41_max        =   7.3323358404274E-06
(PID.TID 0000.0001) %MON trcstat_ptracer41_min        =   1.6411352426155E-38
(PID.TID 0000.0001) %MON trcstat_ptracer41_mean       =   2.1887982690089E-07
(PID.TID 0000.0001) %MON trcstat_ptracer41_sd         =   1.1473135293612E-06
(PID.TID 0000.0001) %MON trcstat_ptracer41_del2       =   0.0000000000000E+00
(PID.TID 0000.0001) %MON trcstat_ptracer42_max        =   7.2849549268310E-06
(PID.TID 0000.0001) %MON trcstat_ptracer42_min        =   1.6411352426155E-38
(PID.TID 0000.0001) %MON trcstat_ptracer42_mean       =   2.1721929438938E-07
(PID.TID 0000.0001) %MON trcstat_ptracer42_sd         =   1.1388296549322E-06
(PID.TID 0000.0001) %MON trcstat_ptracer42_del2       =   0.0000000000000E+00
(PID.TID 0000.0001) %MON trcstat_ptracer43_max        =   7.2846474369393E-06
(PID.TID 0000.0001) %MON trcstat_ptracer43_min        =   6.9529747233171E-34
(PID.TID 0000.0001) %MON trcstat_ptracer43_mean       =   2.1721929438942E-07
(PID.TID 0000.0001) %MON trcstat_ptracer43_sd         =   1.1385393840092E-06
(PID.TID 0000.0001) %MON trcstat_ptracer43_del2       =   0.0000000000000E+00
(PID.TID 0000.0001) %MON trcstat_ptracer44_max        =   7.3531097340987E-06
(PID.TID 0000.0001) %MON trcstat_ptracer44_min        =   1.6411352426155E-38
(PID.TID 0000.0001) %MON trcstat_ptracer44_mean       =   2.1930030725620E-07
(PID.TID 0000.0001) %MON trcstat_ptracer44_sd         =   1.1495624549820E-06
(PID.TID 0000.0001) %MON trcstat_ptracer44_del2       =   0.0000000000000E+00
(PID.TID 0000.0001) %MON trcstat_ptracer45_max        =   7.2846474380674E-06
(PID.TID 0000.0001) %MON trcstat_ptracer45_min        =   6.9529747233172E-34
(PID.TID 0000.0001) %MON trcstat_ptracer45_mean       =   2.1721929442094E-07
(PID.TID 0000.0001) %MON trcstat_ptracer45_sd         =   1.1385393841789E-06
(PID.TID 0000.0001) %MON trcstat_ptracer45_del2       =   0.0000000000000E+00
(PID.TID 0000.0001) %MON trcstat_ptracer46_max        =   7.2846474369382E-06
(PID.TID 0000.0001) %MON trcstat_ptracer46_min        =   6.9529747233171E-34
(PID.TID 0000.0001) %MON trcstat_ptracer46_mean       =   2.1722109980496E-07
(PID.TID 0000.0001) %MON trcstat_ptracer46_sd         =   1.1385391928827E-06
(PID.TID 0000.0001) %MON trcstat_ptracer46_del2       =   0.0000000000000E+00
(PID.TID 0000.0001) %MON trcstat_ptracer47_max        =   7.2948962453532E-06
(PID.TID 0000.0001) %MON trcstat_ptracer47_min        =   6.9529747233171E-34
(PID.TID 0000.0001) %MON trcstat_ptracer47_mean       =   2.1792152394237E-07
(PID.TID 0000.0001) %MON trcstat_ptracer47_sd         =   1.1415421221212E-06
(PID.TID 0000.0001) %MON trcstat_ptracer47_del2       =   0.0000000000000E+00
(PID.TID 0000.0001) %MON trcstat_ptracer48_max        =   7.3797932254761E-06
(PID.TID 0000.0001) %MON trcstat_ptracer48_min        =   1.6411352426155E-38
(PID.TID 0000.0001) %MON trcstat_ptracer48_mean       =   2.1986082430964E-07
(PID.TID 0000.0001) %MON trcstat_ptracer48_sd         =   1.1535977179822E-06
(PID.TID 0000.0001) %MON trcstat_ptracer48_del2       =   0.0000000000000E+00
(PID.TID 0000.0001) %MON trcstat_ptracer49_max        =   7.2846474380667E-06
(PID.TID 0000.0001) %MON trcstat_ptracer49_min        =   6.9529747233172E-34
(PID.TID 0000.0001) %MON trcstat_ptracer49_mean       =   2.1721929442092E-07
(PID.TID 0000.0001) %MON trcstat_ptracer49_sd         =   1.1385393841788E-06
(PID.TID 0000.0001) %MON trcstat_ptracer49_del2       =   0.0000000000000E+00
(PID.TID 0000.0001) %MON trcstat_ptracer50_max        =   7.3192505525989E-06
(PID.TID 0000.0001) %MON trcstat_ptracer50_min        =   1.6411352426155E-38
(PID.TID 0000.0001) %MON trcstat_ptracer50_mean       =   2.1839192208544E-07
(PID.TID 0000.0001) %MON trcstat_ptracer50_sd         =   1.1447214730092E-06
(PID.TID 0000.0001) %MON trcstat_ptracer50_del2       =   0.0000000000000E+00
(PID.TID 0000.0001) %MON trcstat_ptracer51_max        =   7.2846474369373E-06
(PID.TID 0000.0001) %MON trcstat_ptracer51_min        =   6.9529747233171E-34
(PID.TID 0000.0001) %MON trcstat_ptracer51_mean       =   2.1721929438936E-07
(PID.TID 0000.0001) %MON trcstat_ptracer51_sd         =   1.1385393840088E-06
(PID.TID 0000.0001) %MON trcstat_ptracer51_del2       =   0.0000000000000E+00
(PID.TID 0000.0001) %MON trcstat_ptracer52_max        =   7.2875451087925E-06
(PID.TID 0000.0001) %MON trcstat_ptracer52_min        =   1.6411352426155E-38
(PID.TID 0000.0001) %MON trcstat_ptracer52_mean       =   2.1772826782219E-07
(PID.TID 0000.0001) %MON trcstat_ptracer52_sd         =   1.1409392022643E-06
(PID.TID 0000.0001) %MON trcstat_ptracer52_del2       =   0.0000000000000E+00
(PID.TID 0000.0001) %MON trcstat_ptracer53_max        =   7.3931312591426E-06
(PID.TID 0000.0001) %MON trcstat_ptracer53_min        =   1.6411352426155E-38
(PID.TID 0000.0001) %MON trcstat_ptracer53_mean       =   2.2029368680132E-07
(PID.TID 0000.0001) %MON trcstat_ptracer53_sd         =   1.1559017388136E-06
(PID.TID 0000.0001) %MON trcstat_ptracer53_del2       =   0.0000000000000E+00
(PID.TID 0000.0001) %MON trcstat_ptracer54_max        =   7.2846474369368E-06
(PID.TID 0000.0001) %MON trcstat_ptracer54_min        =   6.9529747233171E-34
(PID.TID 0000.0001) %MON trcstat_ptracer54_mean       =   2.1721948141064E-07
(PID.TID 0000.0001) %MON trcstat_ptracer54_sd         =   1.1385393560903E-06
(PID.TID 0000.0001) %MON trcstat_ptracer54_del2       =   0.0000000000000E+00
(PID.TID 0000.0001) %MON trcstat_ptracer55_max        =   7.2849549268333E-06
(PID.TID 0000.0001) %MON trcstat_ptracer55_min        =   1.6411352426155E-38
(PID.TID 0000.0001) %MON trcstat_ptracer55_mean       =   2.1721929438945E-07
(PID.TID 0000.0001) %MON trcstat_ptracer55_sd         =   1.1388296549325E-06
(PID.TID 0000.0001) %MON trcstat_ptracer55_del2       =   0.0000000000000E+00
(PID.TID 0000.0001) %MON trcstat_ptracer56_max        =   7.4108580355163E-06
(PID.TID 0000.0001) %MON trcstat_ptracer56_min        =   6.9529747233171E-34
(PID.TID 0000.0001) %MON trcstat_ptracer56_mean       =   2.2063816235385E-07
(PID.TID 0000.0001) %MON trcstat_ptracer56_sd         =   1.1575296761288E-06
(PID.TID 0000.0001) %MON trcstat_ptracer56_del2       =   0.0000000000000E+00
(PID.TID 0000.0001) %MON trcstat_ptracer57_max        =   7.2846474380663E-06
(PID.TID 0000.0001) %MON trcstat_ptracer57_min        =   6.9529747233172E-34
(PID.TID 0000.0001) %MON trcstat_ptracer57_mean       =   2.1721929442091E-07
(PID.TID 0000.0001) %MON trcstat_ptracer57_sd         =   1.1385393841787E-06
(PID.TID 0000.0001) %MON trcstat_ptracer57_del2       =   0.0000000000000E+00
(PID.TID 0000.0001) %MON trcstat_ptracer58_max        =   7.4307591559996E-06
(PID.TID 0000.0001) %MON trcstat_ptracer58_min        =   6.9529747233171E-34
(PID.TID 0000.0001) %MON trcstat_ptracer58_mean       =   2.2110755293573E-07
(PID.TID 0000.0001) %MON trcstat_ptracer58_sd         =   1.1603476142756E-06
(PID.TID 0000.0001) %MON trcstat_ptracer58_del2       =   0.0000000000000E+00
(PID.TID 0000.0001) %MON trcstat_ptracer59_max        =   7.3597943458733E-06
(PID.TID 0000.0001) %MON trcstat_ptracer59_min        =   1.6411352426155E-38
(PID.TID 0000.0001) %MON trcstat_ptracer59_mean       =   2.1943616358948E-07
(PID.TID 0000.0001) %MON trcstat_ptracer59_sd         =   1.1504518746073E-06
(PID.TID 0000.0001) %MON trcstat_ptracer59_del2       =   0.0000000000000E+00
(PID.TID 0000.0001) %MON trcstat_ptracer60_max        =   7.2849549268297E-06
(PID.TID 0000.0001) %MON trcstat_ptracer60_min        =   1.6411352426155E-38
(PID.TID 0000.0001) %MON trcstat_ptracer60_mean       =   2.1721929438934E-07
(PID.TID 0000.0001) %MON trcstat_ptracer60_sd         =   1.1388296549320E-06
(PID.TID 0000.0001) %MON trcstat_ptracer60_del2       =   0.0000000000000E+00
(PID.TID 0000.0001) %MON trcstat_ptracer61_max        =   7.4154028785615E-06
(PID.TID 0000.0001) %MON trcstat_ptracer61_min        =   6.9529747233172E-34
(PID.TID 0000.0001) %MON trcstat_ptracer61_mean       =   2.2073822391452E-07
(PID.TID 0000.0001) %MON trcstat_ptracer61_sd         =   1.1581270837958E-06
(PID.TID 0000.0001) %MON trcstat_ptracer61_del2       =   0.0000000000000E+00
(PID.TID 0000.0001) %MON trcstat_ptracer62_max        =   7.2846474380677E-06
(PID.TID 0000.0001) %MON trcstat_ptracer62_min        =   6.9529747233172E-34
(PID.TID 0000.0001) %MON trcstat_ptracer62_mean       =   2.1721929442095E-07
(PID.TID 0000.0001) %MON trcstat_ptracer62_sd         =   1.1385393841789E-06
(PID.TID 0000.0001) %MON trcstat_ptracer62_del2       =   0.0000000000000E+00
(PID.TID 0000.0001) %MON trcstat_ptracer63_max        =   7.2849549268313E-06
(PID.TID 0000.0001) %MON trcstat_ptracer63_min        =   1.6411352426155E-38
(PID.TID 0000.0001) %MON trcstat_ptracer63_mean       =   2.1721929438939E-07
(PID.TID 0000.0001) %MON trcstat_ptracer63_sd         =   1.1388296549322E-06
(PID.TID 0000.0001) %MON trcstat_ptracer63_del2       =   0.0000000000000E+00
(PID.TID 0000.0001) %MON trcstat_ptracer64_max        =   7.3973457779709E-06
(PID.TID 0000.0001) %MON trcstat_ptracer64_min        =   1.6411352426155E-38
(PID.TID 0000.0001) %MON trcstat_ptracer64_mean       =   2.2024079784105E-07
(PID.TID 0000.0001) %MON trcstat_ptracer64_sd         =   1.1554326116543E-06
(PID.TID 0000.0001) %MON trcstat_ptracer64_del2       =   0.0000000000000E+00
(PID.TID 0000.0001) %MON trcstat_ptracer65_max        =   7.3660764424339E-06
(PID.TID 0000.0001) %MON trcstat_ptracer65_min        =   1.6411352426155E-38
(PID.TID 0000.0001) %MON trcstat_ptracer65_mean       =   2.1956533851283E-07
(PID.TID 0000.0001) %MON trcstat_ptracer65_sd         =   1.1517200830660E-06
(PID.TID 0000.0001) %MON trcstat_ptracer65_del2       =   0.0000000000000E+00
(PID.TID 0000.0001) %MON trcstat_ptracer66_max        =   7.2846474369376E-06
(PID.TID 0000.0001) %MON trcstat_ptracer66_min        =   6.9529747233171E-34
(PID.TID 0000.0001) %MON trcstat_ptracer66_mean       =   2.1721929438937E-07
(PID.TID 0000.0001) %MON trcstat_ptracer66_sd         =   1.1385393840089E-06
(PID.TID 0000.0001) %MON trcstat_ptracer66_del2       =   0.0000000000000E+00
(PID.TID 0000.0001) %MON trcstat_ptracer67_max        =   7.3240182552354E-06
(PID.TID 0000.0001) %MON trcstat_ptracer67_min        =   6.9529747233172E-34
(PID.TID 0000.0001) %MON trcstat_ptracer67_mean       =   2.1867951506690E-07
(PID.TID 0000.0001) %MON trcstat_ptracer67_sd         =   1.1456190386198E-06
(PID.TID 0000.0001) %MON trcstat_ptracer67_del2       =   0.0000000000000E+00
(PID.TID 0000.0001) %MON trcstat_ptracer68_max        =   7.2849549268303E-06
(PID.TID 0000.0001) %MON trcstat_ptracer68_min        =   1.6411352426155E-38
(PID.TID 0000.0001) %MON trcstat_ptracer68_mean       =   2.1721929438936E-07
(PID.TID 0000.0001) %MON trcstat_ptracer68_sd         =   1.1388296549321E-06
(PID.TID 0000.0001) %MON trcstat_ptracer68_del2       =   0.0000000000000E+00
(PID.TID 0000.0001) %MON trcstat_ptracer69_max        =   7.4076134219582E-06
(PID.TID 0000.0001) %MON trcstat_ptracer69_min        =   6.9529747233172E-34
(PID.TID 0000.0001) %MON trcstat_ptracer69_mean       =   2.2048675241840E-07
(PID.TID 0000.0001) %MON trcstat_ptracer69_sd         =   1.1568378422844E-06
(PID.TID 0000.0001) %MON trcstat_ptracer69_del2       =   0.0000000000000E+00
(PID.TID 0000.0001) %MON trcstat_ptracer70_max        =   7.2846474369375E-06
(PID.TID 0000.0001) %MON trcstat_ptracer70_min        =   6.9529747233171E-34
(PID.TID 0000.0001) %MON trcstat_ptracer70_mean       =   2.1721984780051E-07
(PID.TID 0000.0001) %MON trcstat_ptracer70_sd         =   1.1385393112990E-06
(PID.TID 0000.0001) %MON trcstat_ptracer70_del2       =   0.0000000000000E+00
(PID.TID 0000.0001) %MON trcstat_ptracer71_max        =   7.3072827475741E-06
(PID.TID 0000.0001) %MON trcstat_ptracer71_min        =   6.9529747233171E-34
(PID.TID 0000.0001) %MON trcstat_ptracer71_mean       =   2.1823001411081E-07
(PID.TID 0000.0001) %MON trcstat_ptracer71_sd         =   1.1431549837996E-06
(PID.TID 0000.0001) %MON trcstat_ptracer71_del2       =   0.0000000000000E+00
(PID.TID 0000.0001) %MON trcstat_ptracer72_max        =   7.2846474380660E-06
(PID.TID 0000.0001) %MON trcstat_ptracer72_min        =   6.9529747233172E-34
(PID.TID 0000.0001) %MON trcstat_ptracer72_mean       =   2.1721929442090E-07
(PID.TID 0000.0001) %MON trcstat_ptracer72_sd         =   1.1385393841786E-06
(PID.TID 0000.0001) %MON trcstat_ptracer72_del2       =   0.0000000000000E+00
(PID.TID 0000.0001) %MON trcstat_ptracer73_max        =   7.3776568774473E-06
(PID.TID 0000.0001) %MON trcstat_ptracer73_min        =   1.6411352426155E-38
(PID.TID 0000.0001) %MON trcstat_ptracer73_mean       =   2.1984897267582E-07
(PID.TID 0000.0001) %MON trcstat_ptracer73_sd         =   1.1533556073530E-06
(PID.TID 0000.0001) %MON trcstat_ptracer73_del2       =   0.0000000000000E+00
(PID.TID 0000.0001) %MON trcstat_ptracer74_max        =   7.4382968341687E-06
(PID.TID 0000.0001) %MON trcstat_ptracer74_min        =   6.9529747233172E-34
(PID.TID 0000.0001) %MON trcstat_ptracer74_mean       =   2.2120686533465E-07
(PID.TID 0000.0001) %MON trcstat_ptracer74_sd         =   1.1610992151354E-06
(PID.TID 0000.0001) %MON trcstat_ptracer74_del2       =   0.0000000000000E+00
(PID.TID 0000.0001) %MON trcstat_ptracer75_max        =   7.3991564579119E-06
(PID.TID 0000.0001) %MON trcstat_ptracer75_min        =   6.9529747233172E-34
(PID.TID 0000.0001) %MON trcstat_ptracer75_mean       =   2.2034747751158E-07
(PID.TID 0000.0001) %MON trcstat_ptracer75_sd         =   1.1557120051711E-06
(PID.TID 0000.0001) %MON trcstat_ptracer75_del2       =   0.0000000000000E+00
(PID.TID 0000.0001) %MON trcstat_ptracer76_max        =   7.2849549268302E-06
(PID.TID 0000.0001) %MON trcstat_ptracer76_min        =   1.6411352426155E-38
(PID.TID 0000.0001) %MON trcstat_ptracer76_mean       =   2.1723122905116E-07
(PID.TID 0000.0001) %MON trcstat_ptracer76_sd         =   1.1388584507836E-06
(PID.TID 0000.0001) %MON trcstat_ptracer76_del2       =   0.0000000000000E+00
(PID.TID 0000.0001) %MON trcstat_ptracer77_max        =   7.4279039584429E-06
(PID.TID 0000.0001) %MON trcstat_ptracer77_min        =   6.9529747233171E-34
(PID.TID 0000.0001) %MON trcstat_ptracer77_mean       =   2.2112890670098E-07
(PID.TID 0000.0001) %MON trcstat_ptracer77_sd         =   1.1599894408504E-06
(PID.TID 0000.0001) %MON trcstat_ptracer77_del2       =   0.0000000000000E+00
(PID.TID 0000.0001) %MON trcstat_ptracer78_max        =   7.3444781052493E-06
(PID.TID 0000.0001) %MON trcstat_ptracer78_min        =   6.9529747233171E-34
(PID.TID 0000.0001) %MON trcstat_ptracer78_mean       =   2.1918589500239E-07
(PID.TID 0000.0001) %MON trcstat_ptracer78_sd         =   1.1485107656808E-06
(PID.TID 0000.0001) %MON trcstat_ptracer78_del2       =   0.0000000000000E+00
(PID.TID 0000.0001) %MON trcstat_ptracer79_max        =   7.2849549268326E-06
(PID.TID 0000.0001) %MON trcstat_ptracer79_min        =   1.6411352426155E-38
(PID.TID 0000.0001) %MON trcstat_ptracer79_mean       =   2.1721929438943E-07
(PID.TID 0000.0001) %MON trcstat_ptracer79_sd         =   1.1388296549324E-06
(PID.TID 0000.0001) %MON trcstat_ptracer79_del2       =   0.0000000000000E+00
(PID.TID 0000.0001) %MON trcstat_ptracer80_max        =   7.3776761563928E-06
(PID.TID 0000.0001) %MON trcstat_ptracer80_min        =   1.6411352426155E-38
(PID.TID 0000.0001) %MON trcstat_ptracer80_mean       =   2.1974524752810E-07
(PID.TID 0000.0001) %MON trcstat_ptracer80_sd         =   1.1531154814955E-06
(PID.TID 0000.0001) %MON trcstat_ptracer80_del2       =   0.0000000000000E+00
(PID.TID 0000.0001) %MON trcstat_ptracer81_max        =   7.2849549268333E-06
(PID.TID 0000.0001) %MON trcstat_ptracer81_min        =   1.6411352426155E-38
(PID.TID 0000.0001) %MON trcstat_ptracer81_mean       =   2.1721929438945E-07
(PID.TID 0000.0001) %MON trcstat_ptracer81_sd         =   1.1388296549325E-06
(PID.TID 0000.0001) %MON trcstat_ptracer81_del2       =   0.0000000000000E+00
(PID.TID 0000.0001) %MON trcstat_ptracer82_max        =   7.2846474369392E-06
(PID.TID 0000.0001) %MON trcstat_ptracer82_min        =   6.9529747233171E-34
(PID.TID 0000.0001) %MON trcstat_ptracer82_mean       =   2.1721929438942E-07
(PID.TID 0000.0001) %MON trcstat_ptracer82_sd         =   1.1385393840092E-06
(PID.TID 0000.0001) %MON trcstat_ptracer82_del2       =   0.0000000000000E+00
(PID.TID 0000.0001) %MON trcstat_ptracer83_max        =   7.2846474380680E-06
(PID.TID 0000.0001) %MON trcstat_ptracer83_min        =   6.9529747233172E-34
(PID.TID 0000.0001) %MON trcstat_ptracer83_mean       =   2.1721929442096E-07
(PID.TID 0000.0001) %MON trcstat_ptracer83_sd         =   1.1385393841790E-06
(PID.TID 0000.0001) %MON trcstat_ptracer83_del2       =   0.0000000000000E+00
(PID.TID 0000.0001) %MON trcstat_ptracer84_max        =   7.2849549268299E-06
(PID.TID 0000.0001) %MON trcstat_ptracer84_min        =   1.6411352426155E-38
(PID.TID 0000.0001) %MON trcstat_ptracer84_mean       =   2.1723753388472E-07
(PID.TID 0000.0001) %MON trcstat_ptracer84_sd         =   1.1388509660433E-06
(PID.TID 0000.0001) %MON trcstat_ptracer84_del2       =   0.0000000000000E+00
(PID.TID 0000.0001) %MON trcstat_ptracer85_max        =   7.2849549268308E-06
(PID.TID 0000.0001) %MON trcstat_ptracer85_min        =   1.6411352426155E-38
(PID.TID 0000.0001) %MON trcstat_ptracer85_mean       =   2.1721929438938E-07
(PID.TID 0000.0001) %MON trcstat_ptracer85_sd         =   1.1388296549322E-06
(PID.TID 0000.0001) %MON trcstat_ptracer85_del2       =   0.0000000000000E+00
(PID.TID 0000.0001) %MON trcstat_ptracer86_max        =   7.2849549268321E-06
(PID.TID 0000.0001) %MON trcstat_ptracer86_min        =   1.6411352426155E-38
(PID.TID 0000.0001) %MON trcstat_ptracer86_mean       =   2.1721929438941E-07
(PID.TID 0000.0001) %MON trcstat_ptracer86_sd         =   1.1388296549324E-06
(PID.TID 0000.0001) %MON trcstat_ptracer86_del2       =   0.0000000000000E+00
(PID.TID 0000.0001) %MON trcstat_ptracer87_max        =   7.2846474369374E-06
(PID.TID 0000.0001) %MON trcstat_ptracer87_min        =   6.9529747233171E-34
(PID.TID 0000.0001) %MON trcstat_ptracer87_mean       =   2.1721929438936E-07
(PID.TID 0000.0001) %MON trcstat_ptracer87_sd         =   1.1385393840089E-06
(PID.TID 0000.0001) %MON trcstat_ptracer87_del2       =   0.0000000000000E+00
(PID.TID 0000.0001) %MON trcstat_ptracer88_max        =   7.2846474383079E-06
(PID.TID 0000.0001) %MON trcstat_ptracer88_min        =   6.9529747233172E-34
(PID.TID 0000.0001) %MON trcstat_ptracer88_mean       =   2.1747281748896E-07
(PID.TID 0000.0001) %MON trcstat_ptracer88_sd         =   1.1393606112000E-06
(PID.TID 0000.0001) %MON trcstat_ptracer88_del2       =   0.0000000000000E+00
(PID.TID 0000.0001) %MON trcstat_ptracer89_max        =   7.2846474369384E-06
(PID.TID 0000.0001) %MON trcstat_ptracer89_min        =   6.9529747233171E-34
(PID.TID 0000.0001) %MON trcstat_ptracer89_mean       =   2.1722018477772E-07
(PID.TID 0000.0001) %MON trcstat_ptracer89_sd         =   1.1385392693639E-06
(PID.TID 0000.0001) %MON trcstat_ptracer89_del2       =   0.0000000000000E+00
(PID.TID 0000.0001) %MON trcstat_ptracer90_max        =   7.2846474369372E-06
(PID.TID 0000.0001) %MON trcstat_ptracer90_min        =   6.9529747233171E-34
(PID.TID 0000.0001) %MON trcstat_ptracer90_mean       =   2.1721929438936E-07
(PID.TID 0000.0001) %MON trcstat_ptracer90_sd         =   1.1385393840088E-06
(PID.TID 0000.0001) %MON trcstat_ptracer90_del2       =   0.0000000000000E+00
(PID.TID 0000.0001) %MON trcstat_ptracer91_max        =   7.3562465007896E-06
(PID.TID 0000.0001) %MON trcstat_ptracer91_min        =   6.9529747233172E-34
(PID.TID 0000.0001) %MON trcstat_ptracer91_mean       =   2.1930522094316E-07
(PID.TID 0000.0001) %MON trcstat_ptracer91_sd         =   1.1495828169565E-06
(PID.TID 0000.0001) %MON trcstat_ptracer91_del2       =   0.0000000000000E+00
(PID.TID 0000.0001) %MON trcstat_ptracer92_max        =   7.3887271850992E-06
(PID.TID 0000.0001) %MON trcstat_ptracer92_min        =   1.6411352426155E-38
(PID.TID 0000.0001) %MON trcstat_ptracer92_mean       =   2.1993333232734E-07
(PID.TID 0000.0001) %MON trcstat_ptracer92_sd         =   1.1538110381655E-06
(PID.TID 0000.0001) %MON trcstat_ptracer92_del2       =   0.0000000000000E+00
(PID.TID 0000.0001) %MON trcstat_ptracer93_max        =   7.2849549268307E-06
(PID.TID 0000.0001) %MON trcstat_ptracer93_min        =   1.6411352426155E-38
(PID.TID 0000.0001) %MON trcstat_ptracer93_mean       =   2.1721929438938E-07
(PID.TID 0000.0001) %MON trcstat_ptracer93_sd         =   1.1388296549322E-06
(PID.TID 0000.0001) %MON trcstat_ptracer93_del2       =   0.0000000000000E+00
(PID.TID 0000.0001) %MON trcstat_ptracer94_max        =   7.2846474369374E-06
(PID.TID 0000.0001) %MON trcstat_ptracer94_min        =   6.9529747233171E-34
(PID.TID 0000.0001) %MON trcstat_ptracer94_mean       =   2.1722141080651E-07
(PID.TID 0000.0001) %MON trcstat_ptracer94_sd         =   1.1385392188039E-06
(PID.TID 0000.0001) %MON trcstat_ptracer94_del2       =   0.0000000000000E+00
(PID.TID 0000.0001) %MON trcstat_ptracer95_max        =   7.2849549268301E-06
(PID.TID 0000.0001) %MON trcstat_ptracer95_min        =   1.6411352426155E-38
(PID.TID 0000.0001) %MON trcstat_ptracer95_mean       =   2.1722014631815E-07
(PID.TID 0000.0001) %MON trcstat_ptracer95_sd         =   1.1388295710398E-06
(PID.TID 0000.0001) %MON trcstat_ptracer95_del2       =   0.0000000000000E+00
(PID.TID 0000.0001) %MON trcstat_ptracer96_max        =   7.3744648440170E-06
(PID.TID 0000.0001) %MON trcstat_ptracer96_min        =   1.6411352426155E-38
(PID.TID 0000.0001) %MON trcstat_ptracer96_mean       =   2.1984484980461E-07
(PID.TID 0000.0001) %MON trcstat_ptracer96_sd         =   1.1532538352114E-06
(PID.TID 0000.0001) %MON trcstat_ptracer96_del2       =   0.0000000000000E+00
(PID.TID 0000.0001) %MON trcstat_ptracer97_max        =   7.2849549268300E-06
(PID.TID 0000.0001) %MON trcstat_ptracer97_min        =   1.6411352426155E-38
(PID.TID 0000.0001) %MON trcstat_ptracer97_mean       =   2.1724808053563E-07
(PID.TID 0000.0001) %MON trcstat_ptracer97_sd         =   1.1388708538500E-06
(PID.TID 0000.0001) %MON trcstat_ptracer97_del2       =   0.0000000000000E+00
(PID.TID 0000.0001) %MON trcstat_ptracer98_max        =   7.3740212373601E-06
(PID.TID 0000.0001) %MON trcstat_ptracer98_min        =   1.6411352426155E-38
(PID.TID 0000.0001) %MON trcstat_ptracer98_mean       =   2.1968295933757E-07
(PID.TID 0000.0001) %MON trcstat_ptracer98_sd         =   1.1527559659281E-06
(PID.TID 0000.0001) %MON trcstat_ptracer98_del2       =   0.0000000000000E+00
(PID.TID 0000.0001) %MON trcstat_ptracer99_max        =   7.2849549268328E-06
(PID.TID 0000.0001) %MON trcstat_ptracer99_min        =   1.6411352426155E-38
(PID.TID 0000.0001) %MON trcstat_ptracer99_mean       =   2.1721929438943E-07
(PID.TID 0000.0001) %MON trcstat_ptracer99_sd         =   1.1388296549324E-06
(PID.TID 0000.0001) %MON trcstat_ptracer99_del2       =   0.0000000000000E+00
(PID.TID 0000.0001) // =======================================================
(PID.TID 0000.0001) // End MONITOR ptracers field statistics
(PID.TID 0000.0001) // =======================================================
time,SST,SSS,fu,fv,Q,E-P,i0,i1,a,b =   7.2000E+03  2.5680E+01  0.0000E+00  0.0000E+00  0.0000E+00  0.0000E+00  0.0000E+00    12     1  5.0278E-01  4.9722E-01
time,fu0,fu1,fu =   7.2000E+03  0.0000E+00  0.0000E+00  0.0000E+00  5.027777777777778E-01  4.972222222222222E-01
(PID.TID 0000.0001) // =======================================================
(PID.TID 0000.0001) // Begin MONITOR dynamic field statistics
(PID.TID 0000.0001) // =======================================================
(PID.TID 0000.0001) %MON time_tsnumber                =                     3
(PID.TID 0000.0001) %MON time_secondsf                =   1.0800000000000E+04
(PID.TID 0000.0001) %MON dynstat_eta_max              =   0.0000000000000E+00
(PID.TID 0000.0001) %MON dynstat_eta_min              =   0.0000000000000E+00
(PID.TID 0000.0001) %MON dynstat_eta_mean             =   0.0000000000000E+00
(PID.TID 0000.0001) %MON dynstat_eta_sd               =   0.0000000000000E+00
(PID.TID 0000.0001) %MON dynstat_eta_del2             =   0.0000000000000E+00
(PID.TID 0000.0001) %MON dynstat_uvel_max             =   0.0000000000000E+00
(PID.TID 0000.0001) %MON dynstat_uvel_min             =   0.0000000000000E+00
(PID.TID 0000.0001) %MON dynstat_uvel_mean            =   0.0000000000000E+00
(PID.TID 0000.0001) %MON dynstat_uvel_sd              =   0.0000000000000E+00
(PID.TID 0000.0001) %MON dynstat_uvel_del2            =   0.0000000000000E+00
(PID.TID 0000.0001) %MON dynstat_vvel_max             =   0.0000000000000E+00
(PID.TID 0000.0001) %MON dynstat_vvel_min             =   0.0000000000000E+00
(PID.TID 0000.0001) %MON dynstat_vvel_mean            =   0.0000000000000E+00
(PID.TID 0000.0001) %MON dynstat_vvel_sd              =   0.0000000000000E+00
(PID.TID 0000.0001) %MON dynstat_vvel_del2            =   0.0000000000000E+00
(PID.TID 0000.0001) %MON dynstat_wvel_max             =   0.0000000000000E+00
(PID.TID 0000.0001) %MON dynstat_wvel_min             =   0.0000000000000E+00
(PID.TID 0000.0001) %MON dynstat_wvel_mean            =   0.0000000000000E+00
(PID.TID 0000.0001) %MON dynstat_wvel_sd              =   0.0000000000000E+00
(PID.TID 0000.0001) %MON dynstat_wvel_del2            =   0.0000000000000E+00
(PID.TID 0000.0001) %MON dynstat_theta_max            =   2.6316641728912E+01
(PID.TID 0000.0001) %MON dynstat_theta_min            =   2.6737007672781E+00
(PID.TID 0000.0001) %MON dynstat_theta_mean           =   5.4735157557642E+00
(PID.TID 0000.0001) %MON dynstat_theta_sd             =   5.1968480490481E+00
(PID.TID 0000.0001) %MON dynstat_theta_del2           =   0.0000000000000E+00
(PID.TID 0000.0001) %MON dynstat_salt_max             =   3.5000000000000E+01
(PID.TID 0000.0001) %MON dynstat_salt_min             =   3.5000000000000E+01
(PID.TID 0000.0001) %MON dynstat_salt_mean            =   3.5000000000000E+01
(PID.TID 0000.0001) %MON dynstat_salt_sd              =   7.1054273576010E-15
(PID.TID 0000.0001) %MON dynstat_salt_del2            =   0.0000000000000E+00
(PID.TID 0000.0001) %MON dynstat_sst_max              =   2.6316641728912E+01
(PID.TID 0000.0001) %MON dynstat_sst_min              =   2.6316641728912E+01
(PID.TID 0000.0001) %MON dynstat_sst_mean             =   2.6316641728912E+01
(PID.TID 0000.0001) %MON dynstat_sst_sd               =   0.0000000000000E+00
(PID.TID 0000.0001) %MON dynstat_sst_del2             =   0.0000000000000E+00
(PID.TID 0000.0001) %MON dynstat_sss_max              =   3.5000000000000E+01
(PID.TID 0000.0001) %MON dynstat_sss_min              =   3.5000000000000E+01
(PID.TID 0000.0001) %MON dynstat_sss_mean             =   3.5000000000000E+01
(PID.TID 0000.0001) %MON dynstat_sss_sd               =   0.0000000000000E+00
(PID.TID 0000.0001) %MON dynstat_sss_del2             =   0.0000000000000E+00
(PID.TID 0000.0001) %MON extforcing_qnet_max          =   0.0000000000000E+00
(PID.TID 0000.0001) %MON extforcing_qnet_min          =   0.0000000000000E+00
(PID.TID 0000.0001) %MON extforcing_qnet_mean         =   0.0000000000000E+00
(PID.TID 0000.0001) %MON extforcing_qnet_sd           =   0.0000000000000E+00
(PID.TID 0000.0001) %MON extforcing_qnet_del2         =   0.0000000000000E+00
(PID.TID 0000.0001) %MON extforcing_qsw_max           =   0.0000000000000E+00
(PID.TID 0000.0001) %MON extforcing_qsw_min           =   0.0000000000000E+00
(PID.TID 0000.0001) %MON extforcing_qsw_mean          =   0.0000000000000E+00
(PID.TID 0000.0001) %MON extforcing_qsw_sd            =   0.0000000000000E+00
(PID.TID 0000.0001) %MON extforcing_qsw_del2          =   0.0000000000000E+00
(PID.TID 0000.0001) %MON extforcing_empmr_max         =   0.0000000000000E+00
(PID.TID 0000.0001) %MON extforcing_empmr_min         =   0.0000000000000E+00
(PID.TID 0000.0001) %MON extforcing_empmr_mean        =   0.0000000000000E+00
(PID.TID 0000.0001) %MON extforcing_empmr_sd          =   0.0000000000000E+00
(PID.TID 0000.0001) %MON extforcing_empmr_del2        =   0.0000000000000E+00
(PID.TID 0000.0001) %MON extforcing_fu_max            =   0.0000000000000E+00
(PID.TID 0000.0001) %MON extforcing_fu_min            =   0.0000000000000E+00
(PID.TID 0000.0001) %MON extforcing_fu_mean           =   0.0000000000000E+00
(PID.TID 0000.0001) %MON extforcing_fu_sd             =   0.0000000000000E+00
(PID.TID 0000.0001) %MON extforcing_fu_del2           =   0.0000000000000E+00
(PID.TID 0000.0001) %MON extforcing_fv_max            =   0.0000000000000E+00
(PID.TID 0000.0001) %MON extforcing_fv_min            =   0.0000000000000E+00
(PID.TID 0000.0001) %MON extforcing_fv_mean           =   0.0000000000000E+00
(PID.TID 0000.0001) %MON extforcing_fv_sd             =   0.0000000000000E+00
(PID.TID 0000.0001) %MON extforcing_fv_del2           =   0.0000000000000E+00
(PID.TID 0000.0001) %MON advcfl_uvel_max              =   0.0000000000000E+00
(PID.TID 0000.0001) %MON advcfl_vvel_max              =   0.0000000000000E+00
(PID.TID 0000.0001) %MON advcfl_wvel_max              =   0.0000000000000E+00
(PID.TID 0000.0001) %MON advcfl_W_hf_max              =   0.0000000000000E+00
(PID.TID 0000.0001) %MON pe_b_mean                    =   0.0000000000000E+00
(PID.TID 0000.0001) %MON ke_max                       =   0.0000000000000E+00
(PID.TID 0000.0001) %MON ke_mean                      =   0.0000000000000E+00
(PID.TID 0000.0001) %MON ke_vol                       =   4.1199767883485E+13
(PID.TID 0000.0001) %MON vort_r_min                   =   0.0000000000000E+00
(PID.TID 0000.0001) %MON vort_r_max                   =   0.0000000000000E+00
(PID.TID 0000.0001) %MON vort_a_mean                  =  -4.5067801836625E-05
(PID.TID 0000.0001) %MON vort_a_sd                    =  -4.1359030627651E-25
(PID.TID 0000.0001) %MON vort_p_mean                  =  -4.5067801836625E-05
(PID.TID 0000.0001) %MON vort_p_sd                    =   0.0000000000000E+00
(PID.TID 0000.0001) %MON surfExpan_theta_mean         =   0.0000000000000E+00
(PID.TID 0000.0001) %MON surfExpan_salt_mean          =   0.0000000000000E+00
(PID.TID 0000.0001) // =======================================================
(PID.TID 0000.0001) // End MONITOR dynamic field statistics
(PID.TID 0000.0001) // =======================================================
(PID.TID 0000.0001) // =======================================================
(PID.TID 0000.0001) // Begin MONITOR ptracer field statistics
(PID.TID 0000.0001) // =======================================================
(PID.TID 0000.0001) %MON trcstat_ptracer01_max        =   2.2436997399334E+00
(PID.TID 0000.0001) %MON trcstat_ptracer01_min        =   2.1025516144076E-01
(PID.TID 0000.0001) %MON trcstat_ptracer01_mean       =   1.5821340772001E+00
(PID.TID 0000.0001) %MON trcstat_ptracer01_sd         =   4.6734972655425E-01
(PID.TID 0000.0001) %MON trcstat_ptracer01_del2       =   0.0000000000000E+00
(PID.TID 0000.0001) %MON trcstat_ptracer02_max        =   3.3903494635909E+01
(PID.TID 0000.0001) %MON trcstat_ptracer02_min        =   4.6552025915599E-02
(PID.TID 0000.0001) %MON trcstat_ptracer02_mean       =   2.3502393720737E+01
(PID.TID 0000.0001) %MON trcstat_ptracer02_sd         =   7.8161905522870E+00
(PID.TID 0000.0001) %MON trcstat_ptracer02_del2       =   0.0000000000000E+00
(PID.TID 0000.0001) %MON trcstat_ptracer03_max        =   1.3003905448502E-03
(PID.TID 0000.0001) %MON trcstat_ptracer03_min        =   1.2999561756367E-03
(PID.TID 0000.0001) %MON trcstat_ptracer03_mean       =   1.2999577404536E-03
(PID.TID 0000.0001) %MON trcstat_ptracer03_sd         =   2.3193928255357E-08
(PID.TID 0000.0001) %MON trcstat_ptracer03_del2       =   0.0000000000000E+00
(PID.TID 0000.0001) %MON trcstat_ptracer04_max        =   3.9387400882396E+01
(PID.TID 0000.0001) %MON trcstat_ptracer04_min        =   1.2247943582994E+00
(PID.TID 0000.0001) %MON trcstat_ptracer04_mean       =   2.9621890449834E+01
(PID.TID 0000.0001) %MON trcstat_ptracer04_sd         =   1.1270583577114E+01
(PID.TID 0000.0001) %MON trcstat_ptracer04_del2       =   0.0000000000000E+00
(PID.TID 0000.0001) %MON trcstat_ptracer05_max        =   5.1116519471006E-03
(PID.TID 0000.0001) %MON trcstat_ptracer05_min        =   2.7017881076828E-34
(PID.TID 0000.0001) %MON trcstat_ptracer05_mean       =   2.1460797887450E-04
(PID.TID 0000.0001) %MON trcstat_ptracer05_sd         =   9.2396100955288E-04
(PID.TID 0000.0001) %MON trcstat_ptracer05_del2       =   0.0000000000000E+00
(PID.TID 0000.0001) %MON trcstat_ptracer06_max        =   8.1786431153609E-02
(PID.TID 0000.0001) %MON trcstat_ptracer06_min        =   4.3228609722925E-33
(PID.TID 0000.0001) %MON trcstat_ptracer06_mean       =   3.4337276619920E-03
(PID.TID 0000.0001) %MON trcstat_ptracer06_sd         =   1.4783376152846E-02
(PID.TID 0000.0001) %MON trcstat_ptracer06_del2       =   0.0000000000000E+00
(PID.TID 0000.0001) %MON trcstat_ptracer07_max        =   5.1116515882835E-06
(PID.TID 0000.0001) %MON trcstat_ptracer07_min        =   2.7017840484283E-37
(PID.TID 0000.0001) %MON trcstat_ptracer07_mean       =   2.1460797918062E-07
(PID.TID 0000.0001) %MON trcstat_ptracer07_sd         =   9.2396100921114E-07
(PID.TID 0000.0001) %MON trcstat_ptracer07_del2       =   0.0000000000000E+00
(PID.TID 0000.0001) %MON trcstat_ptracer08_max        =   1.0318593808200E-09
(PID.TID 0000.0001) %MON trcstat_ptracer08_min        =   3.4526288373167E-36
(PID.TID 0000.0001) %MON trcstat_ptracer08_mean       =   1.3645279793884E-10
(PID.TID 0000.0001) %MON trcstat_ptracer08_sd         =   2.4958264348303E-10
(PID.TID 0000.0001) %MON trcstat_ptracer08_del2       =   0.0000000000000E+00
(PID.TID 0000.0001) %MON trcstat_ptracer09_max        =   1.6509750093120E-08
(PID.TID 0000.0001) %MON trcstat_ptracer09_min        =   5.5242061397067E-35
(PID.TID 0000.0001) %MON trcstat_ptracer09_mean       =   2.1832447670214E-09
(PID.TID 0000.0001) %MON trcstat_ptracer09_sd         =   3.9933222957284E-09
(PID.TID 0000.0001) %MON trcstat_ptracer09_del2       =   0.0000000000000E+00
(PID.TID 0000.0001) %MON trcstat_ptracer10_max        =   1.0318593454127E-12
(PID.TID 0000.0001) %MON trcstat_ptracer10_min        =   3.4526285894414E-39
(PID.TID 0000.0001) %MON trcstat_ptracer10_mean       =   1.3645278893282E-13
(PID.TID 0000.0001) %MON trcstat_ptracer10_sd         =   2.4958262924845E-13
(PID.TID 0000.0001) %MON trcstat_ptracer10_del2       =   0.0000000000000E+00
(PID.TID 0000.0001) %MON trcstat_ptracer11_max        =   4.2366800404877E-09
(PID.TID 0000.0001) %MON trcstat_ptracer11_min        =   2.0339945261569E-35
(PID.TID 0000.0001) %MON trcstat_ptracer11_mean       =   5.1356764555314E-10
(PID.TID 0000.0001) %MON trcstat_ptracer11_sd         =   1.0335548896939E-09
(PID.TID 0000.0001) %MON trcstat_ptracer11_del2       =   0.0000000000000E+00
(PID.TID 0000.0001) %MON trcstat_ptracer12_max        =   1.0318552928952E-09
(PID.TID 0000.0001) %MON trcstat_ptracer12_min        =   3.4526288373136E-36
(PID.TID 0000.0001) %MON trcstat_ptracer12_mean       =   1.3645268117356E-10
(PID.TID 0000.0001) %MON trcstat_ptracer12_sd         =   2.4958225183595E-10
(PID.TID 0000.0001) %MON trcstat_ptracer12_del2       =   0.0000000000000E+00
(PID.TID 0000.0001) %MON trcstat_ptracer13_max        =   1.6509684686323E-08
(PID.TID 0000.0001) %MON trcstat_ptracer13_min        =   5.5242061397017E-35
(PID.TID 0000.0001) %MON trcstat_ptracer13_mean       =   2.1832428987769E-09
(PID.TID 0000.0001) %MON trcstat_ptracer13_sd         =   3.9933160293752E-09
(PID.TID 0000.0001) %MON trcstat_ptracer13_del2       =   0.0000000000000E+00
(PID.TID 0000.0001) %MON trcstat_ptracer14_max        =   1.0318552574878E-12
(PID.TID 0000.0001) %MON trcstat_ptracer14_min        =   3.4526285894383E-39
(PID.TID 0000.0001) %MON trcstat_ptracer14_mean       =   1.3645267216754E-13
(PID.TID 0000.0001) %MON trcstat_ptracer14_sd         =   2.4958223760136E-13
(PID.TID 0000.0001) %MON trcstat_ptracer14_del2       =   0.0000000000000E+00
(PID.TID 0000.0001) %MON trcstat_ptracer15_max        =   4.2366800407882E-09
(PID.TID 0000.0001) %MON trcstat_ptracer15_min        =   2.0339945261575E-35
(PID.TID 0000.0001) %MON trcstat_ptracer15_mean       =   5.1357917924258E-10
(PID.TID 0000.0001) %MON trcstat_ptracer15_sd         =   1.0335491609368E-09
(PID.TID 0000.0001) %MON trcstat_ptracer15_del2       =   0.0000000000000E+00
(PID.TID 0000.0001) %MON trcstat_ptracer16_max        =   2.7176109620491E-04
(PID.TID 0000.0001) %MON trcstat_ptracer16_min        =   1.1758700017279E-06
(PID.TID 0000.0001) %MON trcstat_ptracer16_mean       =   7.8806788615236E-05
(PID.TID 0000.0001) %MON trcstat_ptracer16_sd         =   9.6421595018104E-05
(PID.TID 0000.0001) %MON trcstat_ptracer16_del2       =   0.0000000000000E+00
(PID.TID 0000.0001) %MON trcstat_ptracer17_max        =   4.3481775392785E-03
(PID.TID 0000.0001) %MON trcstat_ptracer17_min        =   1.8813920027646E-05
(PID.TID 0000.0001) %MON trcstat_ptracer17_mean       =   1.2609086178438E-03
(PID.TID 0000.0001) %MON trcstat_ptracer17_sd         =   1.5427455202897E-03
(PID.TID 0000.0001) %MON trcstat_ptracer17_del2       =   0.0000000000000E+00
(PID.TID 0000.0001) %MON trcstat_ptracer18_max        =   2.7176111210358E-07
(PID.TID 0000.0001) %MON trcstat_ptracer18_min        =   1.1758698733136E-09
(PID.TID 0000.0001) %MON trcstat_ptracer18_mean       =   7.8806789140541E-08
(PID.TID 0000.0001) %MON trcstat_ptracer18_sd         =   9.6421597073217E-08
(PID.TID 0000.0001) %MON trcstat_ptracer18_del2       =   0.0000000000000E+00
(PID.TID 0000.0001) %MON trcstat_ptracer19_max        =   1.6242578554936E-02
(PID.TID 0000.0001) %MON trcstat_ptracer19_min        =   1.1396871723566E-03
(PID.TID 0000.0001) %MON trcstat_ptracer19_mean       =   5.4879246139484E-03
(PID.TID 0000.0001) %MON trcstat_ptracer19_sd         =   5.1683178923060E-03
(PID.TID 0000.0001) %MON trcstat_ptracer19_del2       =   0.0000000000000E+00
(PID.TID 0000.0001) %MON trcstat_ptracer20_max        =   2.5635878477841E-02
(PID.TID 0000.0001) %MON trcstat_ptracer20_min        =   1.8767602871184E-07
(PID.TID 0000.0001) %MON trcstat_ptracer20_mean       =   6.0482463383360E-04
(PID.TID 0000.0001) %MON trcstat_ptracer20_sd         =   3.2537128608069E-03
(PID.TID 0000.0001) %MON trcstat_ptracer20_del2       =   0.0000000000000E+00
(PID.TID 0000.0001) %MON trcstat_ptracer21_max        =   1.8417024987790E-02
(PID.TID 0000.0001) %MON trcstat_ptracer21_min        =   3.8780993188188E-06
(PID.TID 0000.0001) %MON trcstat_ptracer21_mean       =   6.0483621117417E-04
(PID.TID 0000.0001) %MON trcstat_ptracer21_sd         =   1.9461650274704E-03
(PID.TID 0000.0001) %MON trcstat_ptracer21_del2       =   0.0000000000000E+00
(PID.TID 0000.0001) %MON trcstat_ptracer22_max        =   7.3002595603963E-06
(PID.TID 0000.0001) %MON trcstat_ptracer22_min        =   1.6970042425561E-31
(PID.TID 0000.0001) %MON trcstat_ptracer22_mean       =   2.1814237082650E-07
(PID.TID 0000.0001) %MON trcstat_ptracer22_sd         =   1.1424414851050E-06
(PID.TID 0000.0001) %MON trcstat_ptracer22_del2       =   0.0000000000000E+00
(PID.TID 0000.0001) %MON trcstat_ptracer23_max        =   7.5097065796087E-06
(PID.TID 0000.0001) %MON trcstat_ptracer23_min        =   1.6970042425561E-31
(PID.TID 0000.0001) %MON trcstat_ptracer23_mean       =   2.2310195860764E-07
(PID.TID 0000.0001) %MON trcstat_ptracer23_sd         =   1.1717623365306E-06
(PID.TID 0000.0001) %MON trcstat_ptracer23_del2       =   0.0000000000000E+00
(PID.TID 0000.0001) %MON trcstat_ptracer24_max        =   7.2545461146777E-06
(PID.TID 0000.0001) %MON trcstat_ptracer24_min        =   4.9152451728254E-38
(PID.TID 0000.0001) %MON trcstat_ptracer24_mean       =   2.1631421394387E-07
(PID.TID 0000.0001) %MON trcstat_ptracer24_sd         =   1.1340787591799E-06
(PID.TID 0000.0001) %MON trcstat_ptracer24_del2       =   0.0000000000000E+00
(PID.TID 0000.0001) %MON trcstat_ptracer25_max        =   7.3888351252694E-06
(PID.TID 0000.0001) %MON trcstat_ptracer25_min        =   4.9152451728254E-38
(PID.TID 0000.0001) %MON trcstat_ptracer25_mean       =   2.2009391235968E-07
(PID.TID 0000.0001) %MON trcstat_ptracer25_sd         =   1.1551491403322E-06
(PID.TID 0000.0001) %MON trcstat_ptracer25_del2       =   0.0000000000000E+00
(PID.TID 0000.0001) %MON trcstat_ptracer26_max        =   7.4491665251506E-06
(PID.TID 0000.0001) %MON trcstat_ptracer26_min        =   1.6970042425561E-31
(PID.TID 0000.0001) %MON trcstat_ptracer26_mean       =   2.2150871969348E-07
(PID.TID 0000.0001) %MON trcstat_ptracer26_sd         =   1.1626417582920E-06
(PID.TID 0000.0001) %MON trcstat_ptracer26_del2       =   0.0000000000000E+00
(PID.TID 0000.0001) %MON trcstat_ptracer27_max        =   7.2545461146782E-06
(PID.TID 0000.0001) %MON trcstat_ptracer27_min        =   4.9152451728254E-38
(PID.TID 0000.0001) %MON trcstat_ptracer27_mean       =   2.1631421394389E-07
(PID.TID 0000.0001) %MON trcstat_ptracer27_sd         =   1.1340787591800E-06
(PID.TID 0000.0001) %MON trcstat_ptracer27_del2       =   0.0000000000000E+00
(PID.TID 0000.0001) %MON trcstat_ptracer28_max        =   7.3938737260328E-06
(PID.TID 0000.0001) %MON trcstat_ptracer28_min        =   4.9152451728254E-38
(PID.TID 0000.0001) %MON trcstat_ptracer28_mean       =   2.2041733029827E-07
(PID.TID 0000.0001) %MON trcstat_ptracer28_sd         =   1.1565976451944E-06
(PID.TID 0000.0001) %MON trcstat_ptracer28_del2       =   0.0000000000000E+00
(PID.TID 0000.0001) %MON trcstat_ptracer29_max        =   7.3441198358918E-06
(PID.TID 0000.0001) %MON trcstat_ptracer29_min        =   4.9152451728254E-38
(PID.TID 0000.0001) %MON trcstat_ptracer29_mean       =   2.1839109820185E-07
(PID.TID 0000.0001) %MON trcstat_ptracer29_sd         =   1.1465109825815E-06
(PID.TID 0000.0001) %MON trcstat_ptracer29_del2       =   0.0000000000000E+00
(PID.TID 0000.0001) %MON trcstat_ptracer30_max        =   7.2545461146787E-06
(PID.TID 0000.0001) %MON trcstat_ptracer30_min        =   4.9152451728254E-38
(PID.TID 0000.0001) %MON trcstat_ptracer30_mean       =   2.1631494059461E-07
(PID.TID 0000.0001) %MON trcstat_ptracer30_sd         =   1.1340786747412E-06
(PID.TID 0000.0001) %MON trcstat_ptracer30_del2       =   0.0000000000000E+00
(PID.TID 0000.0001) %MON trcstat_ptracer31_max        =   7.3683513635839E-06
(PID.TID 0000.0001) %MON trcstat_ptracer31_min        =   4.9152451728254E-38
(PID.TID 0000.0001) %MON trcstat_ptracer31_mean       =   2.1950951577747E-07
(PID.TID 0000.0001) %MON trcstat_ptracer31_sd         =   1.1520601414008E-06
(PID.TID 0000.0001) %MON trcstat_ptracer31_del2       =   0.0000000000000E+00
(PID.TID 0000.0001) %MON trcstat_ptracer32_max        =   7.2540871829925E-06
(PID.TID 0000.0001) %MON trcstat_ptracer32_min        =   1.6970042425561E-31
(PID.TID 0000.0001) %MON trcstat_ptracer32_mean       =   2.1631421394388E-07
(PID.TID 0000.0001) %MON trcstat_ptracer32_sd         =   1.1336459347783E-06
(PID.TID 0000.0001) %MON trcstat_ptracer32_del2       =   0.0000000000000E+00
(PID.TID 0000.0001) %MON trcstat_ptracer33_max        =   7.3932039783665E-06
(PID.TID 0000.0001) %MON trcstat_ptracer33_min        =   4.9152451728254E-38
(PID.TID 0000.0001) %MON trcstat_ptracer33_mean       =   2.2030683503260E-07
(PID.TID 0000.0001) %MON trcstat_ptracer33_sd         =   1.1551886319071E-06
(PID.TID 0000.0001) %MON trcstat_ptracer33_del2       =   0.0000000000000E+00
(PID.TID 0000.0001) %MON trcstat_ptracer34_max        =   7.4727908785656E-06
(PID.TID 0000.0001) %MON trcstat_ptracer34_min        =   1.6970042425561E-31
(PID.TID 0000.0001) %MON trcstat_ptracer34_mean       =   2.2215116636159E-07
(PID.TID 0000.0001) %MON trcstat_ptracer34_sd         =   1.1659907402523E-06
(PID.TID 0000.0001) %MON trcstat_ptracer34_del2       =   0.0000000000000E+00
(PID.TID 0000.0001) %MON trcstat_ptracer35_max        =   7.2540871846801E-06
(PID.TID 0000.0001) %MON trcstat_ptracer35_min        =   1.6970042425561E-31
(PID.TID 0000.0001) %MON trcstat_ptracer35_mean       =   2.1631421399104E-07
(PID.TID 0000.0001) %MON trcstat_ptracer35_sd         =   1.1336459350322E-06
(PID.TID 0000.0001) %MON trcstat_ptracer35_del2       =   0.0000000000000E+00
(PID.TID 0000.0001) %MON trcstat_ptracer36_max        =   7.2545461146770E-06
(PID.TID 0000.0001) %MON trcstat_ptracer36_min        =   4.9152451728254E-38
(PID.TID 0000.0001) %MON trcstat_ptracer36_mean       =   2.1631421394384E-07
(PID.TID 0000.0001) %MON trcstat_ptracer36_sd         =   1.1340787591798E-06
(PID.TID 0000.0001) %MON trcstat_ptracer36_del2       =   0.0000000000000E+00
(PID.TID 0000.0001) %MON trcstat_ptracer37_max        =   7.2545461146774E-06
(PID.TID 0000.0001) %MON trcstat_ptracer37_min        =   4.9152451728254E-38
(PID.TID 0000.0001) %MON trcstat_ptracer37_mean       =   2.1631421394385E-07
(PID.TID 0000.0001) %MON trcstat_ptracer37_sd         =   1.1340787591798E-06
(PID.TID 0000.0001) %MON trcstat_ptracer37_del2       =   0.0000000000000E+00
(PID.TID 0000.0001) %MON trcstat_ptracer38_max        =   7.2545461146772E-06
(PID.TID 0000.0001) %MON trcstat_ptracer38_min        =   4.9152451728254E-38
(PID.TID 0000.0001) %MON trcstat_ptracer38_mean       =   2.1631421394384E-07
(PID.TID 0000.0001) %MON trcstat_ptracer38_sd         =   1.1340787591798E-06
(PID.TID 0000.0001) %MON trcstat_ptracer38_del2       =   0.0000000000000E+00
(PID.TID 0000.0001) %MON trcstat_ptracer39_max        =   7.2545461146777E-06
(PID.TID 0000.0001) %MON trcstat_ptracer39_min        =   4.9152451728254E-38
(PID.TID 0000.0001) %MON trcstat_ptracer39_mean       =   2.1631421394387E-07
(PID.TID 0000.0001) %MON trcstat_ptracer39_sd         =   1.1340787591799E-06
(PID.TID 0000.0001) %MON trcstat_ptracer39_del2       =   0.0000000000000E+00
(PID.TID 0000.0001) %MON trcstat_ptracer40_max        =   7.2545461146798E-06
(PID.TID 0000.0001) %MON trcstat_ptracer40_min        =   4.9152451728254E-38
(PID.TID 0000.0001) %MON trcstat_ptracer40_mean       =   2.1631421394393E-07
(PID.TID 0000.0001) %MON trcstat_ptracer40_sd         =   1.1340787591802E-06
(PID.TID 0000.0001) %MON trcstat_ptracer40_del2       =   0.0000000000000E+00
(PID.TID 0000.0001) %MON trcstat_ptracer41_max        =   7.3254760685514E-06
(PID.TID 0000.0001) %MON trcstat_ptracer41_min        =   4.9152451728254E-38
(PID.TID 0000.0001) %MON trcstat_ptracer41_mean       =   2.1880196868466E-07
(PID.TID 0000.0001) %MON trcstat_ptracer41_sd         =   1.1467961753415E-06
(PID.TID 0000.0001) %MON trcstat_ptracer41_del2       =   0.0000000000000E+00
(PID.TID 0000.0001) %MON trcstat_ptracer42_max        =   7.2545461146797E-06
(PID.TID 0000.0001) %MON trcstat_ptracer42_min        =   4.9152451728254E-38
(PID.TID 0000.0001) %MON trcstat_ptracer42_mean       =   2.1631421394393E-07
(PID.TID 0000.0001) %MON trcstat_ptracer42_sd         =   1.1340787591802E-06
(PID.TID 0000.0001) %MON trcstat_ptracer42_del2       =   0.0000000000000E+00
(PID.TID 0000.0001) %MON trcstat_ptracer43_max        =   7.2540871829961E-06
(PID.TID 0000.0001) %MON trcstat_ptracer43_min        =   1.6970042425561E-31
(PID.TID 0000.0001) %MON trcstat_ptracer43_mean       =   2.1631421394399E-07
(PID.TID 0000.0001) %MON trcstat_ptracer43_sd         =   1.1336459347789E-06
(PID.TID 0000.0001) %MON trcstat_ptracer43_del2       =   0.0000000000000E+00
(PID.TID 0000.0001) %MON trcstat_ptracer44_max        =   7.3566084268793E-06
(PID.TID 0000.0001) %MON trcstat_ptracer44_min        =   4.9152451728254E-38
(PID.TID 0000.0001) %MON trcstat_ptracer44_mean       =   2.1943202378365E-07
(PID.TID 0000.0001) %MON trcstat_ptracer44_sd         =   1.1501644020201E-06
(PID.TID 0000.0001) %MON trcstat_ptracer44_del2       =   0.0000000000000E+00
(PID.TID 0000.0001) %MON trcstat_ptracer45_max        =   7.2540871846801E-06
(PID.TID 0000.0001) %MON trcstat_ptracer45_min        =   1.6970042425561E-31
(PID.TID 0000.0001) %MON trcstat_ptracer45_mean       =   2.1631421399104E-07
(PID.TID 0000.0001) %MON trcstat_ptracer45_sd         =   1.1336459350322E-06
(PID.TID 0000.0001) %MON trcstat_ptracer45_del2       =   0.0000000000000E+00
(PID.TID 0000.0001) %MON trcstat_ptracer46_max        =   7.2540871829946E-06
(PID.TID 0000.0001) %MON trcstat_ptracer46_min        =   1.6970042425561E-31
(PID.TID 0000.0001) %MON trcstat_ptracer46_mean       =   2.1631690935775E-07
(PID.TID 0000.0001) %MON trcstat_ptracer46_sd         =   1.1336456495869E-06
(PID.TID 0000.0001) %MON trcstat_ptracer46_del2       =   0.0000000000000E+00
(PID.TID 0000.0001) %MON trcstat_ptracer47_max        =   7.2693956313212E-06
(PID.TID 0000.0001) %MON trcstat_ptracer47_min        =   1.6970042425561E-31
(PID.TID 0000.0001) %MON trcstat_ptracer47_mean       =   2.1736499931619E-07
(PID.TID 0000.0001) %MON trcstat_ptracer47_sd         =   1.1381432095534E-06
(PID.TID 0000.0001) %MON trcstat_ptracer47_del2       =   0.0000000000000E+00
(PID.TID 0000.0001) %MON trcstat_ptracer48_max        =   7.3967402671988E-06
(PID.TID 0000.0001) %MON trcstat_ptracer48_min        =   4.9152451728254E-38
(PID.TID 0000.0001) %MON trcstat_ptracer48_mean       =   2.2027411402206E-07
(PID.TID 0000.0001) %MON trcstat_ptracer48_sd         =   1.1562206357021E-06
(PID.TID 0000.0001) %MON trcstat_ptracer48_del2       =   0.0000000000000E+00
(PID.TID 0000.0001) %MON trcstat_ptracer49_max        =   7.2540871846791E-06
(PID.TID 0000.0001) %MON trcstat_ptracer49_min        =   1.6970042425561E-31
(PID.TID 0000.0001) %MON trcstat_ptracer49_mean       =   2.1631421399101E-07
(PID.TID 0000.0001) %MON trcstat_ptracer49_sd         =   1.1336459350320E-06
(PID.TID 0000.0001) %MON trcstat_ptracer49_del2       =   0.0000000000000E+00
(PID.TID 0000.0001) %MON trcstat_ptracer50_max        =   7.3058470204490E-06
(PID.TID 0000.0001) %MON trcstat_ptracer50_min        =   4.9152451728254E-38
(PID.TID 0000.0001) %MON trcstat_ptracer50_mean       =   2.1806948304734E-07
(PID.TID 0000.0001) %MON trcstat_ptracer50_sd         =   1.1429029445267E-06
(PID.TID 0000.0001) %MON trcstat_ptracer50_del2       =   0.0000000000000E+00
(PID.TID 0000.0001) %MON trcstat_ptracer51_max        =   7.2540871829932E-06
(PID.TID 0000.0001) %MON trcstat_ptracer51_min        =   1.6970042425561E-31
(PID.TID 0000.0001) %MON trcstat_ptracer51_mean       =   2.1631421394390E-07
(PID.TID 0000.0001) %MON trcstat_ptracer51_sd         =   1.1336459347784E-06
(PID.TID 0000.0001) %MON trcstat_ptracer51_del2       =   0.0000000000000E+00
(PID.TID 0000.0001) %MON trcstat_ptracer52_max        =   7.2584203075254E-06
(PID.TID 0000.0001) %MON trcstat_ptracer52_min        =   4.9152451728254E-38
(PID.TID 0000.0001) %MON trcstat_ptracer52_mean       =   2.1707541020072E-07
(PID.TID 0000.0001) %MON trcstat_ptracer52_sd         =   1.1372360577779E-06
(PID.TID 0000.0001) %MON trcstat_ptracer52_del2       =   0.0000000000000E+00
(PID.TID 0000.0001) %MON trcstat_ptracer53_max        =   7.4168113439107E-06
(PID.TID 0000.0001) %MON trcstat_ptracer53_min        =   4.9152451728254E-38
(PID.TID 0000.0001) %MON trcstat_ptracer53_mean       =   2.2092533743738E-07
(PID.TID 0000.0001) %MON trcstat_ptracer53_sd         =   1.1596878599715E-06
(PID.TID 0000.0001) %MON trcstat_ptracer53_del2       =   0.0000000000000E+00
(PID.TID 0000.0001) %MON trcstat_ptracer54_max        =   7.2540871829925E-06
(PID.TID 0000.0001) %MON trcstat_ptracer54_min        =   1.6970042425561E-31
(PID.TID 0000.0001) %MON trcstat_ptracer54_mean       =   2.1631449265016E-07
(PID.TID 0000.0001) %MON trcstat_ptracer54_sd         =   1.1336458931635E-06
(PID.TID 0000.0001) %MON trcstat_ptracer54_del2       =   0.0000000000000E+00
(PID.TID 0000.0001) %MON trcstat_ptracer55_max        =   7.2545461146832E-06
(PID.TID 0000.0001) %MON trcstat_ptracer55_min        =   4.9152451728254E-38
(PID.TID 0000.0001) %MON trcstat_ptracer55_mean       =   2.1631421394403E-07
(PID.TID 0000.0001) %MON trcstat_ptracer55_sd         =   1.1340787591807E-06
(PID.TID 0000.0001) %MON trcstat_ptracer55_del2       =   0.0000000000000E+00
(PID.TID 0000.0001) %MON trcstat_ptracer56_max        =   7.4434553611304E-06
(PID.TID 0000.0001) %MON trcstat_ptracer56_min        =   1.6970042425561E-31
(PID.TID 0000.0001) %MON trcstat_ptracer56_mean       =   2.2144216121617E-07
(PID.TID 0000.0001) %MON trcstat_ptracer56_sd         =   1.1621321441053E-06
(PID.TID 0000.0001) %MON trcstat_ptracer56_del2       =   0.0000000000000E+00
(PID.TID 0000.0001) %MON trcstat_ptracer57_max        =   7.2540871846785E-06
(PID.TID 0000.0001) %MON trcstat_ptracer57_min        =   1.6970042425561E-31
(PID.TID 0000.0001) %MON trcstat_ptracer57_mean       =   2.1631421399099E-07
(PID.TID 0000.0001) %MON trcstat_ptracer57_sd         =   1.1336459350319E-06
(PID.TID 0000.0001) %MON trcstat_ptracer57_del2       =   0.0000000000000E+00
(PID.TID 0000.0001) %MON trcstat_ptracer58_max        =   7.4734640352074E-06
(PID.TID 0000.0001) %MON trcstat_ptracer58_min        =   1.6970042425561E-31
(PID.TID 0000.0001) %MON trcstat_ptracer58_mean       =   2.2214973532020E-07
(PID.TID 0000.0001) %MON trcstat_ptracer58_sd         =   1.1663811936388E-06
(PID.TID 0000.0001) %MON trcstat_ptracer58_del2       =   0.0000000000000E+00
(PID.TID 0000.0001) %MON trcstat_ptracer59_max        =   7.3666449782878E-06
(PID.TID 0000.0001) %MON trcstat_ptracer59_min        =   4.9152451728254E-38
(PID.TID 0000.0001) %MON trcstat_ptracer59_mean       =   2.1963638643760E-07
(PID.TID 0000.0001) %MON trcstat_ptracer59_sd         =   1.1515038234160E-06
(PID.TID 0000.0001) %MON trcstat_ptracer59_del2       =   0.0000000000000E+00
(PID.TID 0000.0001) %MON trcstat_ptracer60_max        =   7.2545461146778E-06
(PID.TID 0000.0001) %MON trcstat_ptracer60_min        =   4.9152451728254E-38
(PID.TID 0000.0001) %MON trcstat_ptracer60_mean       =   2.1631421394387E-07
(PID.TID 0000.0001) %MON trcstat_ptracer60_sd         =   1.1340787591799E-06
(PID.TID 0000.0001) %MON trcstat_ptracer60_del2       =   0.0000000000000E+00
(PID.TID 0000.0001) %MON trcstat_ptracer61_max        =   7.4503042777999E-06
(PID.TID 0000.0001) %MON trcstat_ptracer61_min        =   1.6970042425561E-31
(PID.TID 0000.0001) %MON trcstat_ptracer61_mean       =   2.2159295630624E-07
(PID.TID 0000.0001) %MON trcstat_ptracer61_sd         =   1.1630326109100E-06
(PID.TID 0000.0001) %MON trcstat_ptracer61_del2       =   0.0000000000000E+00
(PID.TID 0000.0001) %MON trcstat_ptracer62_max        =   7.2540871846805E-06
(PID.TID 0000.0001) %MON trcstat_ptracer62_min        =   1.6970042425561E-31
(PID.TID 0000.0001) %MON trcstat_ptracer62_mean       =   2.1631421399105E-07
(PID.TID 0000.0001) %MON trcstat_ptracer62_sd         =   1.1336459350323E-06
(PID.TID 0000.0001) %MON trcstat_ptracer62_del2       =   0.0000000000000E+00
(PID.TID 0000.0001) %MON trcstat_ptracer63_max        =   7.2545461146801E-06
(PID.TID 0000.0001) %MON trcstat_ptracer63_min        =   4.9152451728254E-38
(PID.TID 0000.0001) %MON trcstat_ptracer63_mean       =   2.1631421394394E-07
(PID.TID 0000.0001) %MON trcstat_ptracer63_sd         =   1.1340787591802E-06
(PID.TID 0000.0001) %MON trcstat_ptracer63_del2       =   0.0000000000000E+00
(PID.TID 0000.0001) %MON trcstat_ptracer64_max        =   7.4230972434533E-06
(PID.TID 0000.0001) %MON trcstat_ptracer64_min        =   4.9152451728254E-38
(PID.TID 0000.0001) %MON trcstat_ptracer64_mean       =   2.2084450341652E-07
(PID.TID 0000.0001) %MON trcstat_ptracer64_sd         =   1.1589763298255E-06
(PID.TID 0000.0001) %MON trcstat_ptracer64_del2       =   0.0000000000000E+00
(PID.TID 0000.0001) %MON trcstat_ptracer65_max        =   7.3761199509938E-06
(PID.TID 0000.0001) %MON trcstat_ptracer65_min        =   4.9152451728254E-38
(PID.TID 0000.0001) %MON trcstat_ptracer65_mean       =   2.1982990224140E-07
(PID.TID 0000.0001) %MON trcstat_ptracer65_sd         =   1.1533981336105E-06
(PID.TID 0000.0001) %MON trcstat_ptracer65_del2       =   0.0000000000000E+00
(PID.TID 0000.0001) %MON trcstat_ptracer66_max        =   7.2540871829936E-06
(PID.TID 0000.0001) %MON trcstat_ptracer66_min        =   1.6970042425561E-31
(PID.TID 0000.0001) %MON trcstat_ptracer66_mean       =   2.1631421394391E-07
(PID.TID 0000.0001) %MON trcstat_ptracer66_sd         =   1.1336459347785E-06
(PID.TID 0000.0001) %MON trcstat_ptracer66_del2       =   0.0000000000000E+00
(PID.TID 0000.0001) %MON trcstat_ptracer67_max        =   7.3129717194271E-06
(PID.TID 0000.0001) %MON trcstat_ptracer67_min        =   1.6970042425561E-31
(PID.TID 0000.0001) %MON trcstat_ptracer67_mean       =   2.1850096414412E-07
(PID.TID 0000.0001) %MON trcstat_ptracer67_sd         =   1.1442538078140E-06
(PID.TID 0000.0001) %MON trcstat_ptracer67_del2       =   0.0000000000000E+00
(PID.TID 0000.0001) %MON trcstat_ptracer68_max        =   7.2545461146786E-06
(PID.TID 0000.0001) %MON trcstat_ptracer68_min        =   4.9152451728254E-38
(PID.TID 0000.0001) %MON trcstat_ptracer68_mean       =   2.1631421394390E-07
(PID.TID 0000.0001) %MON trcstat_ptracer68_sd         =   1.1340787591800E-06
(PID.TID 0000.0001) %MON trcstat_ptracer68_del2       =   0.0000000000000E+00
(PID.TID 0000.0001) %MON trcstat_ptracer69_max        =   7.4385674307371E-06
(PID.TID 0000.0001) %MON trcstat_ptracer69_min        =   1.6970042425561E-31
(PID.TID 0000.0001) %MON trcstat_ptracer69_mean       =   2.2121438993017E-07
(PID.TID 0000.0001) %MON trcstat_ptracer69_sd         =   1.1610911879895E-06
(PID.TID 0000.0001) %MON trcstat_ptracer69_del2       =   0.0000000000000E+00
(PID.TID 0000.0001) %MON trcstat_ptracer70_max        =   7.2540871829935E-06
(PID.TID 0000.0001) %MON trcstat_ptracer70_min        =   1.6970042425561E-31
(PID.TID 0000.0001) %MON trcstat_ptracer70_mean       =   2.1631504007185E-07
(PID.TID 0000.0001) %MON trcstat_ptracer70_sd         =   1.1336458262561E-06
(PID.TID 0000.0001) %MON trcstat_ptracer70_del2       =   0.0000000000000E+00
(PID.TID 0000.0001) %MON trcstat_ptracer71_max        =   7.2879193574941E-06
(PID.TID 0000.0001) %MON trcstat_ptracer71_min        =   1.6970042425561E-31
(PID.TID 0000.0001) %MON trcstat_ptracer71_mean       =   2.1782731477726E-07
(PID.TID 0000.0001) %MON trcstat_ptracer71_sd         =   1.1405608761127E-06
(PID.TID 0000.0001) %MON trcstat_ptracer71_del2       =   0.0000000000000E+00
(PID.TID 0000.0001) %MON trcstat_ptracer72_max        =   7.2540871846780E-06
(PID.TID 0000.0001) %MON trcstat_ptracer72_min        =   1.6970042425561E-31
(PID.TID 0000.0001) %MON trcstat_ptracer72_mean       =   2.1631421399097E-07
(PID.TID 0000.0001) %MON trcstat_ptracer72_sd         =   1.1336459350319E-06
(PID.TID 0000.0001) %MON trcstat_ptracer72_del2       =   0.0000000000000E+00
(PID.TID 0000.0001) %MON trcstat_ptracer73_max        =   7.3935273169803E-06
(PID.TID 0000.0001) %MON trcstat_ptracer73_min        =   4.9152451728254E-38
(PID.TID 0000.0001) %MON trcstat_ptracer73_mean       =   2.2025622006961E-07
(PID.TID 0000.0001) %MON trcstat_ptracer73_sd         =   1.1558568091734E-06
(PID.TID 0000.0001) %MON trcstat_ptracer73_del2       =   0.0000000000000E+00
(PID.TID 0000.0001) %MON trcstat_ptracer74_max        =   7.4848421094307E-06
(PID.TID 0000.0001) %MON trcstat_ptracer74_min        =   1.6970042425561E-31
(PID.TID 0000.0001) %MON trcstat_ptracer74_mean       =   2.2230006657700E-07
(PID.TID 0000.0001) %MON trcstat_ptracer74_sd         =   1.1675189582458E-06
(PID.TID 0000.0001) %MON trcstat_ptracer74_del2       =   0.0000000000000E+00
(PID.TID 0000.0001) %MON trcstat_ptracer75_max        =   7.4258256321424E-06
(PID.TID 0000.0001) %MON trcstat_ptracer75_min        =   1.6970042425561E-31
(PID.TID 0000.0001) %MON trcstat_ptracer75_mean       =   2.2100462221376E-07
(PID.TID 0000.0001) %MON trcstat_ptracer75_sd         =   1.1593959059828E-06
(PID.TID 0000.0001) %MON trcstat_ptracer75_del2       =   0.0000000000000E+00
(PID.TID 0000.0001) %MON trcstat_ptracer76_max        =   7.2545461146785E-06
(PID.TID 0000.0001) %MON trcstat_ptracer76_min        =   4.9152451728254E-38
(PID.TID 0000.0001) %MON trcstat_ptracer76_mean       =   2.1633200350201E-07
(PID.TID 0000.0001) %MON trcstat_ptracer76_sd         =   1.1341217519939E-06
(PID.TID 0000.0001) %MON trcstat_ptracer76_del2       =   0.0000000000000E+00
(PID.TID 0000.0001) %MON trcstat_ptracer77_max        =   7.4691490642926E-06
(PID.TID 0000.0001) %MON trcstat_ptracer77_min        =   1.6970042425561E-31
(PID.TID 0000.0001) %MON trcstat_ptracer77_mean       =   2.2218174545243E-07
(PID.TID 0000.0001) %MON trcstat_ptracer77_sd         =   1.1658407351578E-06
(PID.TID 0000.0001) %MON trcstat_ptracer77_del2       =   0.0000000000000E+00
(PID.TID 0000.0001) %MON trcstat_ptracer78_max        =   7.3436388917045E-06
(PID.TID 0000.0001) %MON trcstat_ptracer78_min        =   1.6970042425561E-31
(PID.TID 0000.0001) %MON trcstat_ptracer78_mean       =   2.1926053530033E-07
(PID.TID 0000.0001) %MON trcstat_ptracer78_sd         =   1.1485910996701E-06
(PID.TID 0000.0001) %MON trcstat_ptracer78_del2       =   0.0000000000000E+00
(PID.TID 0000.0001) %MON trcstat_ptracer79_max        =   7.2545461146821E-06
(PID.TID 0000.0001) %MON trcstat_ptracer79_min        =   4.9152451728254E-38
(PID.TID 0000.0001) %MON trcstat_ptracer79_mean       =   2.1631421394400E-07
(PID.TID 0000.0001) %MON trcstat_ptracer79_sd         =   1.1340787591805E-06
(PID.TID 0000.0001) %MON trcstat_ptracer79_del2       =   0.0000000000000E+00
(PID.TID 0000.0001) %MON trcstat_ptracer80_max        =   7.3935623481681E-06
(PID.TID 0000.0001) %MON trcstat_ptracer80_min        =   4.9152451728254E-38
(PID.TID 0000.0001) %MON trcstat_ptracer80_mean       =   2.2010085900035E-07
(PID.TID 0000.0001) %MON trcstat_ptracer80_sd         =   1.1554979235135E-06
(PID.TID 0000.0001) %MON trcstat_ptracer80_del2       =   0.0000000000000E+00
(PID.TID 0000.0001) %MON trcstat_ptracer81_max        =   7.2545461146832E-06
(PID.TID 0000.0001) %MON trcstat_ptracer81_min        =   4.9152451728254E-38
(PID.TID 0000.0001) %MON trcstat_ptracer81_mean       =   2.1631421394403E-07
(PID.TID 0000.0001) %MON trcstat_ptracer81_sd         =   1.1340787591807E-06
(PID.TID 0000.0001) %MON trcstat_ptracer81_del2       =   0.0000000000000E+00
(PID.TID 0000.0001) %MON trcstat_ptracer82_max        =   7.2540871829961E-06
(PID.TID 0000.0001) %MON trcstat_ptracer82_min        =   1.6970042425561E-31
(PID.TID 0000.0001) %MON trcstat_ptracer82_mean       =   2.1631421394399E-07
(PID.TID 0000.0001) %MON trcstat_ptracer82_sd         =   1.1336459347789E-06
(PID.TID 0000.0001) %MON trcstat_ptracer82_del2       =   0.0000000000000E+00
(PID.TID 0000.0001) %MON trcstat_ptracer83_max        =   7.2540871846810E-06
(PID.TID 0000.0001) %MON trcstat_ptracer83_min        =   1.6970042425561E-31
(PID.TID 0000.0001) %MON trcstat_ptracer83_mean       =   2.1631421399106E-07
(PID.TID 0000.0001) %MON trcstat_ptracer83_sd         =   1.1336459350323E-06
(PID.TID 0000.0001) %MON trcstat_ptracer83_del2       =   0.0000000000000E+00
(PID.TID 0000.0001) %MON trcstat_ptracer84_max        =   7.2545461146781E-06
(PID.TID 0000.0001) %MON trcstat_ptracer84_min        =   4.9152451728254E-38
(PID.TID 0000.0001) %MON trcstat_ptracer84_mean       =   2.1634144661738E-07
(PID.TID 0000.0001) %MON trcstat_ptracer84_sd         =   1.1341105942727E-06
(PID.TID 0000.0001) %MON trcstat_ptracer84_del2       =   0.0000000000000E+00
(PID.TID 0000.0001) %MON trcstat_ptracer85_max        =   7.2545461146793E-06
(PID.TID 0000.0001) %MON trcstat_ptracer85_min        =   4.9152451728254E-38
(PID.TID 0000.0001) %MON trcstat_ptracer85_mean       =   2.1631421394392E-07
(PID.TID 0000.0001) %MON trcstat_ptracer85_sd         =   1.1340787591802E-06
(PID.TID 0000.0001) %MON trcstat_ptracer85_del2       =   0.0000000000000E+00
(PID.TID 0000.0001) %MON trcstat_ptracer86_max        =   7.2545461146814E-06
(PID.TID 0000.0001) %MON trcstat_ptracer86_min        =   4.9152451728254E-38
(PID.TID 0000.0001) %MON trcstat_ptracer86_mean       =   2.1631421394398E-07
(PID.TID 0000.0001) %MON trcstat_ptracer86_sd         =   1.1340787591804E-06
(PID.TID 0000.0001) %MON trcstat_ptracer86_del2       =   0.0000000000000E+00
(PID.TID 0000.0001) %MON trcstat_ptracer87_max        =   7.2540871829934E-06
(PID.TID 0000.0001) %MON trcstat_ptracer87_min        =   1.6970042425561E-31
(PID.TID 0000.0001) %MON trcstat_ptracer87_mean       =   2.1631421394391E-07
(PID.TID 0000.0001) %MON trcstat_ptracer87_sd         =   1.1336459347785E-06
(PID.TID 0000.0001) %MON trcstat_ptracer87_del2       =   0.0000000000000E+00
(PID.TID 0000.0001) %MON trcstat_ptracer88_max        =   7.2540871856374E-06
(PID.TID 0000.0001) %MON trcstat_ptracer88_min        =   1.6970042425561E-31
(PID.TID 0000.0001) %MON trcstat_ptracer88_mean       =   2.1669331680182E-07
(PID.TID 0000.0001) %MON trcstat_ptracer88_sd         =   1.1348748719165E-06
(PID.TID 0000.0001) %MON trcstat_ptracer88_del2       =   0.0000000000000E+00
(PID.TID 0000.0001) %MON trcstat_ptracer89_max        =   7.2540871829948E-06
(PID.TID 0000.0001) %MON trcstat_ptracer89_min        =   1.6970042425561E-31
(PID.TID 0000.0001) %MON trcstat_ptracer89_mean       =   2.1631554317929E-07
(PID.TID 0000.0001) %MON trcstat_ptracer89_sd         =   1.1336457636722E-06
(PID.TID 0000.0001) %MON trcstat_ptracer89_del2       =   0.0000000000000E+00
(PID.TID 0000.0001) %MON trcstat_ptracer90_max        =   7.2540871829930E-06
(PID.TID 0000.0001) %MON trcstat_ptracer90_min        =   1.6970042425561E-31
(PID.TID 0000.0001) %MON trcstat_ptracer90_mean       =   2.1631421394389E-07
(PID.TID 0000.0001) %MON trcstat_ptracer90_sd         =   1.1336459347784E-06
(PID.TID 0000.0001) %MON trcstat_ptracer90_del2       =   0.0000000000000E+00
(PID.TID 0000.0001) %MON trcstat_ptracer91_max        =   7.3613039811990E-06
(PID.TID 0000.0001) %MON trcstat_ptracer91_min        =   1.6970042425561E-31
(PID.TID 0000.0001) %MON trcstat_ptracer91_mean       =   2.1943869133504E-07
(PID.TID 0000.0001) %MON trcstat_ptracer91_sd         =   1.1501896740681E-06
(PID.TID 0000.0001) %MON trcstat_ptracer91_del2       =   0.0000000000000E+00
(PID.TID 0000.0001) %MON trcstat_ptracer92_max        =   7.4101273970184E-06
(PID.TID 0000.0001) %MON trcstat_ptracer92_min        =   4.9152451728254E-38
(PID.TID 0000.0001) %MON trcstat_ptracer92_mean       =   2.2038241359466E-07
(PID.TID 0000.0001) %MON trcstat_ptracer92_sd         =   1.1565389765049E-06
(PID.TID 0000.0001) %MON trcstat_ptracer92_del2       =   0.0000000000000E+00
(PID.TID 0000.0001) %MON trcstat_ptracer93_max        =   7.2545461146793E-06
(PID.TID 0000.0001) %MON trcstat_ptracer93_min        =   4.9152451728254E-38
(PID.TID 0000.0001) %MON trcstat_ptracer93_mean       =   2.1631421394392E-07
(PID.TID 0000.0001) %MON trcstat_ptracer93_sd         =   1.1340787591802E-06
(PID.TID 0000.0001) %MON trcstat_ptracer93_del2       =   0.0000000000000E+00
(PID.TID 0000.0001) %MON trcstat_ptracer94_max        =   7.2540871829934E-06
(PID.TID 0000.0001) %MON trcstat_ptracer94_min        =   1.6970042425561E-31
(PID.TID 0000.0001) %MON trcstat_ptracer94_mean       =   2.1631737770207E-07
(PID.TID 0000.0001) %MON trcstat_ptracer94_sd         =   1.1336456893897E-06
(PID.TID 0000.0001) %MON trcstat_ptracer94_del2       =   0.0000000000000E+00
(PID.TID 0000.0001) %MON trcstat_ptracer95_max        =   7.2545461146783E-06
(PID.TID 0000.0001) %MON trcstat_ptracer95_min        =   4.9152451728254E-38
(PID.TID 0000.0001) %MON trcstat_ptracer95_mean       =   2.1631548605124E-07
(PID.TID 0000.0001) %MON trcstat_ptracer95_sd         =   1.1340786339709E-06
(PID.TID 0000.0001) %MON trcstat_ptracer95_del2       =   0.0000000000000E+00
(PID.TID 0000.0001) %MON trcstat_ptracer96_max        =   7.3887290067201E-06
(PID.TID 0000.0001) %MON trcstat_ptracer96_min        =   4.9152451728254E-38
(PID.TID 0000.0001) %MON trcstat_ptracer96_mean       =   2.2024994486753E-07
(PID.TID 0000.0001) %MON trcstat_ptracer96_sd         =   1.1557032918580E-06
(PID.TID 0000.0001) %MON trcstat_ptracer96_del2       =   0.0000000000000E+00
(PID.TID 0000.0001) %MON trcstat_ptracer97_max        =   7.2545461146782E-06
(PID.TID 0000.0001) %MON trcstat_ptracer97_min        =   4.9152451728254E-38
(PID.TID 0000.0001) %MON trcstat_ptracer97_mean       =   2.1635720173885E-07
(PID.TID 0000.0001) %MON trcstat_ptracer97_sd         =   1.1341403162849E-06
(PID.TID 0000.0001) %MON trcstat_ptracer97_del2       =   0.0000000000000E+00
(PID.TID 0000.0001) %MON trcstat_ptracer98_max        =   7.3880671261086E-06
(PID.TID 0000.0001) %MON trcstat_ptracer98_min        =   4.9152451728254E-38
(PID.TID 0000.0001) %MON trcstat_ptracer98_mean       =   2.2000714014698E-07
(PID.TID 0000.0001) %MON trcstat_ptracer98_sd         =   1.1549567574866E-06
(PID.TID 0000.0001) %MON trcstat_ptracer98_del2       =   0.0000000000000E+00
(PID.TID 0000.0001) %MON trcstat_ptracer99_max        =   7.2545461146823E-06
(PID.TID 0000.0001) %MON trcstat_ptracer99_min        =   4.9152451728254E-38
(PID.TID 0000.0001) %MON trcstat_ptracer99_mean       =   2.1631421394400E-07
(PID.TID 0000.0001) %MON trcstat_ptracer99_sd         =   1.1340787591806E-06
(PID.TID 0000.0001) %MON trcstat_ptracer99_del2       =   0.0000000000000E+00
(PID.TID 0000.0001) // =======================================================
(PID.TID 0000.0001) // End MONITOR ptracers field statistics
(PID.TID 0000.0001) // =======================================================
time,SST,SSS,fu,fv,Q,E-P,i0,i1,a,b =   1.0800E+04  2.5682E+01  0.0000E+00  0.0000E+00  0.0000E+00  0.0000E+00  0.0000E+00    12     1  5.0417E-01  4.9583E-01
time,fu0,fu1,fu =   1.0800E+04  0.0000E+00  0.0000E+00  0.0000E+00  5.041666666666667E-01  4.958333333333333E-01
(PID.TID 0000.0001) // =======================================================
(PID.TID 0000.0001) // Begin MONITOR dynamic field statistics
(PID.TID 0000.0001) // =======================================================
(PID.TID 0000.0001) %MON time_tsnumber                =                     4
(PID.TID 0000.0001) %MON time_secondsf                =   1.4400000000000E+04
(PID.TID 0000.0001) %MON dynstat_eta_max              =   0.0000000000000E+00
(PID.TID 0000.0001) %MON dynstat_eta_min              =   0.0000000000000E+00
(PID.TID 0000.0001) %MON dynstat_eta_mean             =   0.0000000000000E+00
(PID.TID 0000.0001) %MON dynstat_eta_sd               =   0.0000000000000E+00
(PID.TID 0000.0001) %MON dynstat_eta_del2             =   0.0000000000000E+00
(PID.TID 0000.0001) %MON dynstat_uvel_max             =   0.0000000000000E+00
(PID.TID 0000.0001) %MON dynstat_uvel_min             =   0.0000000000000E+00
(PID.TID 0000.0001) %MON dynstat_uvel_mean            =   0.0000000000000E+00
(PID.TID 0000.0001) %MON dynstat_uvel_sd              =   0.0000000000000E+00
(PID.TID 0000.0001) %MON dynstat_uvel_del2            =   0.0000000000000E+00
(PID.TID 0000.0001) %MON dynstat_vvel_max             =   0.0000000000000E+00
(PID.TID 0000.0001) %MON dynstat_vvel_min             =   0.0000000000000E+00
(PID.TID 0000.0001) %MON dynstat_vvel_mean            =   0.0000000000000E+00
(PID.TID 0000.0001) %MON dynstat_vvel_sd              =   0.0000000000000E+00
(PID.TID 0000.0001) %MON dynstat_vvel_del2            =   0.0000000000000E+00
(PID.TID 0000.0001) %MON dynstat_wvel_max             =   0.0000000000000E+00
(PID.TID 0000.0001) %MON dynstat_wvel_min             =   0.0000000000000E+00
(PID.TID 0000.0001) %MON dynstat_wvel_mean            =   0.0000000000000E+00
(PID.TID 0000.0001) %MON dynstat_wvel_sd              =   0.0000000000000E+00
(PID.TID 0000.0001) %MON dynstat_wvel_del2            =   0.0000000000000E+00
(PID.TID 0000.0001) %MON dynstat_theta_max            =   2.6307340345579E+01
(PID.TID 0000.0001) %MON dynstat_theta_min            =   2.6737009916297E+00
(PID.TID 0000.0001) %MON dynstat_theta_mean           =   5.4734908053328E+00
(PID.TID 0000.0001) %MON dynstat_theta_sd             =   5.1967318185908E+00
(PID.TID 0000.0001) %MON dynstat_theta_del2           =   0.0000000000000E+00
(PID.TID 0000.0001) %MON dynstat_salt_max             =   3.5000000000000E+01
(PID.TID 0000.0001) %MON dynstat_salt_min             =   3.5000000000000E+01
(PID.TID 0000.0001) %MON dynstat_salt_mean            =   3.5000000000000E+01
(PID.TID 0000.0001) %MON dynstat_salt_sd              =   7.1054273576010E-15
(PID.TID 0000.0001) %MON dynstat_salt_del2            =   0.0000000000000E+00
(PID.TID 0000.0001) %MON dynstat_sst_max              =   2.6307340345579E+01
(PID.TID 0000.0001) %MON dynstat_sst_min              =   2.6307340345579E+01
(PID.TID 0000.0001) %MON dynstat_sst_mean             =   2.6307340345579E+01
(PID.TID 0000.0001) %MON dynstat_sst_sd               =   0.0000000000000E+00
(PID.TID 0000.0001) %MON dynstat_sst_del2             =   0.0000000000000E+00
(PID.TID 0000.0001) %MON dynstat_sss_max              =   3.5000000000000E+01
(PID.TID 0000.0001) %MON dynstat_sss_min              =   3.5000000000000E+01
(PID.TID 0000.0001) %MON dynstat_sss_mean             =   3.5000000000000E+01
(PID.TID 0000.0001) %MON dynstat_sss_sd               =   0.0000000000000E+00
(PID.TID 0000.0001) %MON dynstat_sss_del2             =   0.0000000000000E+00
(PID.TID 0000.0001) %MON extforcing_qnet_max          =   0.0000000000000E+00
(PID.TID 0000.0001) %MON extforcing_qnet_min          =   0.0000000000000E+00
(PID.TID 0000.0001) %MON extforcing_qnet_mean         =   0.0000000000000E+00
(PID.TID 0000.0001) %MON extforcing_qnet_sd           =   0.0000000000000E+00
(PID.TID 0000.0001) %MON extforcing_qnet_del2         =   0.0000000000000E+00
(PID.TID 0000.0001) %MON extforcing_qsw_max           =   0.0000000000000E+00
(PID.TID 0000.0001) %MON extforcing_qsw_min           =   0.0000000000000E+00
(PID.TID 0000.0001) %MON extforcing_qsw_mean          =   0.0000000000000E+00
(PID.TID 0000.0001) %MON extforcing_qsw_sd            =   0.0000000000000E+00
(PID.TID 0000.0001) %MON extforcing_qsw_del2          =   0.0000000000000E+00
(PID.TID 0000.0001) %MON extforcing_empmr_max         =   0.0000000000000E+00
(PID.TID 0000.0001) %MON extforcing_empmr_min         =   0.0000000000000E+00
(PID.TID 0000.0001) %MON extforcing_empmr_mean        =   0.0000000000000E+00
(PID.TID 0000.0001) %MON extforcing_empmr_sd          =   0.0000000000000E+00
(PID.TID 0000.0001) %MON extforcing_empmr_del2        =   0.0000000000000E+00
(PID.TID 0000.0001) %MON extforcing_fu_max            =   0.0000000000000E+00
(PID.TID 0000.0001) %MON extforcing_fu_min            =   0.0000000000000E+00
(PID.TID 0000.0001) %MON extforcing_fu_mean           =   0.0000000000000E+00
(PID.TID 0000.0001) %MON extforcing_fu_sd             =   0.0000000000000E+00
(PID.TID 0000.0001) %MON extforcing_fu_del2           =   0.0000000000000E+00
(PID.TID 0000.0001) %MON extforcing_fv_max            =   0.0000000000000E+00
(PID.TID 0000.0001) %MON extforcing_fv_min            =   0.0000000000000E+00
(PID.TID 0000.0001) %MON extforcing_fv_mean           =   0.0000000000000E+00
(PID.TID 0000.0001) %MON extforcing_fv_sd             =   0.0000000000000E+00
(PID.TID 0000.0001) %MON extforcing_fv_del2           =   0.0000000000000E+00
(PID.TID 0000.0001) %MON advcfl_uvel_max              =   0.0000000000000E+00
(PID.TID 0000.0001) %MON advcfl_vvel_max              =   0.0000000000000E+00
(PID.TID 0000.0001) %MON advcfl_wvel_max              =   0.0000000000000E+00
(PID.TID 0000.0001) %MON advcfl_W_hf_max              =   0.0000000000000E+00
(PID.TID 0000.0001) %MON pe_b_mean                    =   0.0000000000000E+00
(PID.TID 0000.0001) %MON ke_max                       =   0.0000000000000E+00
(PID.TID 0000.0001) %MON ke_mean                      =   0.0000000000000E+00
(PID.TID 0000.0001) %MON ke_vol                       =   4.1199767883485E+13
(PID.TID 0000.0001) %MON vort_r_min                   =   0.0000000000000E+00
(PID.TID 0000.0001) %MON vort_r_max                   =   0.0000000000000E+00
(PID.TID 0000.0001) %MON vort_a_mean                  =  -4.5067801836625E-05
(PID.TID 0000.0001) %MON vort_a_sd                    =  -4.1359030627651E-25
(PID.TID 0000.0001) %MON vort_p_mean                  =  -4.5067801836625E-05
(PID.TID 0000.0001) %MON vort_p_sd                    =   0.0000000000000E+00
(PID.TID 0000.0001) %MON surfExpan_theta_mean         =   0.0000000000000E+00
(PID.TID 0000.0001) %MON surfExpan_salt_mean          =   0.0000000000000E+00
(PID.TID 0000.0001) // =======================================================
(PID.TID 0000.0001) // End MONITOR dynamic field statistics
(PID.TID 0000.0001) // =======================================================
(PID.TID 0000.0001) // =======================================================
(PID.TID 0000.0001) // Begin MONITOR ptracer field statistics
(PID.TID 0000.0001) // =======================================================
(PID.TID 0000.0001) %MON trcstat_ptracer01_max        =   2.2436996440743E+00
(PID.TID 0000.0001) %MON trcstat_ptracer01_min        =   2.1025687168704E-01
(PID.TID 0000.0001) %MON trcstat_ptracer01_mean       =   1.5821341873794E+00
(PID.TID 0000.0001) %MON trcstat_ptracer01_sd         =   4.6734941757333E-01
(PID.TID 0000.0001) %MON trcstat_ptracer01_del2       =   0.0000000000000E+00
(PID.TID 0000.0001) %MON trcstat_ptracer02_max        =   3.3903492981311E+01
(PID.TID 0000.0001) %MON trcstat_ptracer02_min        =   4.6636019586745E-02
(PID.TID 0000.0001) %MON trcstat_ptracer02_mean       =   2.3502395025464E+01
(PID.TID 0000.0001) %MON trcstat_ptracer02_sd         =   7.8161863873434E+00
(PID.TID 0000.0001) %MON trcstat_ptracer02_del2       =   0.0000000000000E+00
(PID.TID 0000.0001) %MON trcstat_ptracer03_max        =   1.3005205921010E-03
(PID.TID 0000.0001) %MON trcstat_ptracer03_min        =   1.2999415676276E-03
(PID.TID 0000.0001) %MON trcstat_ptracer03_mean       =   1.2999436535920E-03
(PID.TID 0000.0001) %MON trcstat_ptracer03_sd         =   3.0918059793088E-08
(PID.TID 0000.0001) %MON trcstat_ptracer03_del2       =   0.0000000000000E+00
(PID.TID 0000.0001) %MON trcstat_ptracer04_max        =   3.9387400649807E+01
(PID.TID 0000.0001) %MON trcstat_ptracer04_min        =   1.2247924202627E+00
(PID.TID 0000.0001) %MON trcstat_ptracer04_mean       =   2.9621890994125E+01
(PID.TID 0000.0001) %MON trcstat_ptracer04_sd         =   1.1270581920236E+01
(PID.TID 0000.0001) %MON trcstat_ptracer04_del2       =   0.0000000000000E+00
(PID.TID 0000.0001) %MON trcstat_ptracer05_max        =   5.1110507681064E-03
(PID.TID 0000.0001) %MON trcstat_ptracer05_min        =   6.3038515527928E-34
(PID.TID 0000.0001) %MON trcstat_ptracer05_mean       =   2.1456542519257E-04
(PID.TID 0000.0001) %MON trcstat_ptracer05_sd         =   9.2380689882979E-04
(PID.TID 0000.0001) %MON trcstat_ptracer05_del2       =   0.0000000000000E+00
(PID.TID 0000.0001) %MON trcstat_ptracer06_max        =   8.1776812289702E-02
(PID.TID 0000.0001) %MON trcstat_ptracer06_min        =   1.0086162484469E-32
(PID.TID 0000.0001) %MON trcstat_ptracer06_mean       =   3.4330468030811E-03
(PID.TID 0000.0001) %MON trcstat_ptracer06_sd         =   1.4780910381277E-02
(PID.TID 0000.0001) %MON trcstat_ptracer06_del2       =   0.0000000000000E+00
(PID.TID 0000.0001) %MON trcstat_ptracer07_max        =   5.1110504097357E-06
(PID.TID 0000.0001) %MON trcstat_ptracer07_min        =   6.3038420851396E-37
(PID.TID 0000.0001) %MON trcstat_ptracer07_mean       =   2.1456542549856E-07
(PID.TID 0000.0001) %MON trcstat_ptracer07_sd         =   9.2380689848806E-07
(PID.TID 0000.0001) %MON trcstat_ptracer07_del2       =   0.0000000000000E+00
(PID.TID 0000.0001) %MON trcstat_ptracer08_max        =   1.0304592281671E-09
(PID.TID 0000.0001) %MON trcstat_ptracer08_min        =   8.0449423880969E-36
(PID.TID 0000.0001) %MON trcstat_ptracer08_mean       =   1.3626424971775E-10
(PID.TID 0000.0001) %MON trcstat_ptracer08_sd         =   2.4923866742476E-10
(PID.TID 0000.0001) %MON trcstat_ptracer08_del2       =   0.0000000000000E+00
(PID.TID 0000.0001) %MON trcstat_ptracer09_max        =   1.6487347650673E-08
(PID.TID 0000.0001) %MON trcstat_ptracer09_min        =   1.2871907820955E-34
(PID.TID 0000.0001) %MON trcstat_ptracer09_mean       =   2.1802279954840E-09
(PID.TID 0000.0001) %MON trcstat_ptracer09_sd         =   3.9878186787962E-09
(PID.TID 0000.0001) %MON trcstat_ptracer09_del2       =   0.0000000000000E+00
(PID.TID 0000.0001) %MON trcstat_ptracer10_max        =   1.0304591928110E-12
(PID.TID 0000.0001) %MON trcstat_ptracer10_min        =   8.0449418105248E-39
(PID.TID 0000.0001) %MON trcstat_ptracer10_mean       =   1.3626424072424E-13
(PID.TID 0000.0001) %MON trcstat_ptracer10_sd         =   2.4923865321012E-13
(PID.TID 0000.0001) %MON trcstat_ptracer10_del2       =   0.0000000000000E+00
(PID.TID 0000.0001) %MON trcstat_ptracer11_max        =   4.2307901168614E-09
(PID.TID 0000.0001) %MON trcstat_ptracer11_min        =   4.7393941114573E-35
(PID.TID 0000.0001) %MON trcstat_ptracer11_mean       =   5.1285469046519E-10
(PID.TID 0000.0001) %MON trcstat_ptracer11_sd         =   1.0321181323624E-09
(PID.TID 0000.0001) %MON trcstat_ptracer11_del2       =   0.0000000000000E+00
(PID.TID 0000.0001) %MON trcstat_ptracer12_max        =   1.0304538174731E-09
(PID.TID 0000.0001) %MON trcstat_ptracer12_min        =   8.0449423880862E-36
(PID.TID 0000.0001) %MON trcstat_ptracer12_mean       =   1.3626409487655E-10
(PID.TID 0000.0001) %MON trcstat_ptracer12_sd         =   2.4923814790292E-10
(PID.TID 0000.0001) %MON trcstat_ptracer12_del2       =   0.0000000000000E+00
(PID.TID 0000.0001) %MON trcstat_ptracer13_max        =   1.6487261079569E-08
(PID.TID 0000.0001) %MON trcstat_ptracer13_min        =   1.2871907820938E-34
(PID.TID 0000.0001) %MON trcstat_ptracer13_mean       =   2.1802255180248E-09
(PID.TID 0000.0001) %MON trcstat_ptracer13_sd         =   3.9878103664467E-09
(PID.TID 0000.0001) %MON trcstat_ptracer13_del2       =   0.0000000000000E+00
(PID.TID 0000.0001) %MON trcstat_ptracer14_max        =   1.0304537821170E-12
(PID.TID 0000.0001) %MON trcstat_ptracer14_min        =   8.0449418105140E-39
(PID.TID 0000.0001) %MON trcstat_ptracer14_mean       =   1.3626408588304E-13
(PID.TID 0000.0001) %MON trcstat_ptracer14_sd         =   2.4923813368825E-13
(PID.TID 0000.0001) %MON trcstat_ptracer14_del2       =   0.0000000000000E+00
(PID.TID 0000.0001) %MON trcstat_ptracer15_max        =   4.2307901172603E-09
(PID.TID 0000.0001) %MON trcstat_ptracer15_min        =   4.7393941114593E-35
(PID.TID 0000.0001) %MON trcstat_ptracer15_mean       =   5.1287004351371E-10
(PID.TID 0000.0001) %MON trcstat_ptracer15_sd         =   1.0321105074980E-09
(PID.TID 0000.0001) %MON trcstat_ptracer15_del2       =   0.0000000000000E+00
(PID.TID 0000.0001) %MON trcstat_ptracer16_max        =   2.7152518301851E-04
(PID.TID 0000.0001) %MON trcstat_ptracer16_min        =   1.1768726465650E-06
(PID.TID 0000.0001) %MON trcstat_ptracer16_mean       =   7.8765107760581E-05
(PID.TID 0000.0001) %MON trcstat_ptracer16_sd         =   9.6351196272485E-05
(PID.TID 0000.0001) %MON trcstat_ptracer16_del2       =   0.0000000000000E+00
(PID.TID 0000.0001) %MON trcstat_ptracer17_max        =   4.3444029282961E-03
(PID.TID 0000.0001) %MON trcstat_ptracer17_min        =   1.8829962345039E-05
(PID.TID 0000.0001) %MON trcstat_ptracer17_mean       =   1.2602417241693E-03
(PID.TID 0000.0001) %MON trcstat_ptracer17_sd         =   1.5416191403598E-03
(PID.TID 0000.0001) %MON trcstat_ptracer17_del2       =   0.0000000000000E+00
(PID.TID 0000.0001) %MON trcstat_ptracer18_max        =   2.7152519897930E-07
(PID.TID 0000.0001) %MON trcstat_ptracer18_min        =   1.1768725182750E-09
(PID.TID 0000.0001) %MON trcstat_ptracer18_mean       =   7.8765108285447E-08
(PID.TID 0000.0001) %MON trcstat_ptracer18_sd         =   9.6351198326424E-08
(PID.TID 0000.0001) %MON trcstat_ptracer18_del2       =   0.0000000000000E+00
(PID.TID 0000.0001) %MON trcstat_ptracer19_max        =   1.6239075643479E-02
(PID.TID 0000.0001) %MON trcstat_ptracer19_min        =   1.1401897530467E-03
(PID.TID 0000.0001) %MON trcstat_ptracer19_mean       =   5.4874102501322E-03
(PID.TID 0000.0001) %MON trcstat_ptracer19_sd         =   5.1667132317286E-03
(PID.TID 0000.0001) %MON trcstat_ptracer19_del2       =   0.0000000000000E+00
(PID.TID 0000.0001) %MON trcstat_ptracer20_max        =   2.5653047286031E-02
(PID.TID 0000.0001) %MON trcstat_ptracer20_min        =   1.8771465384296E-07
(PID.TID 0000.0001) %MON trcstat_ptracer20_mean       =   6.0527521970070E-04
(PID.TID 0000.0001) %MON trcstat_ptracer20_sd         =   3.2574294792152E-03
(PID.TID 0000.0001) %MON trcstat_ptracer20_del2       =   0.0000000000000E+00
(PID.TID 0000.0001) %MON trcstat_ptracer21_max        =   1.8467334029384E-02
(PID.TID 0000.0001) %MON trcstat_ptracer21_min        =   3.8775807092714E-06
(PID.TID 0000.0001) %MON trcstat_ptracer21_mean       =   6.0484376765376E-04
(PID.TID 0000.0001) %MON trcstat_ptracer21_sd         =   1.9471158696599E-03
(PID.TID 0000.0001) %MON trcstat_ptracer21_del2       =   0.0000000000000E+00
(PID.TID 0000.0001) %MON trcstat_ptracer22_max        =   7.2850186581372E-06
(PID.TID 0000.0001) %MON trcstat_ptracer22_min        =   1.4160604848341E-29
(PID.TID 0000.0001) %MON trcstat_ptracer22_mean       =   2.1784621247576E-07
(PID.TID 0000.0001) %MON trcstat_ptracer22_sd         =   1.1404895114318E-06
(PID.TID 0000.0001) %MON trcstat_ptracer22_del2       =   0.0000000000000E+00
(PID.TID 0000.0001) %MON trcstat_ptracer23_max        =   7.5650898818243E-06
(PID.TID 0000.0001) %MON trcstat_ptracer23_min        =   1.4160604848341E-29
(PID.TID 0000.0001) %MON trcstat_ptracer23_mean       =   2.2447542145893E-07
(PID.TID 0000.0001) %MON trcstat_ptracer23_sd         =   1.1796744679755E-06
(PID.TID 0000.0001) %MON trcstat_ptracer23_del2       =   0.0000000000000E+00
(PID.TID 0000.0001) %MON trcstat_ptracer24_max        =   7.2242642740632E-06
(PID.TID 0000.0001) %MON trcstat_ptracer24_min        =   1.1449875060228E-37
(PID.TID 0000.0001) %MON trcstat_ptracer24_mean       =   2.1541290466721E-07
(PID.TID 0000.0001) %MON trcstat_ptracer24_sd         =   1.1293476836547E-06
(PID.TID 0000.0001) %MON trcstat_ptracer24_del2       =   0.0000000000000E+00
(PID.TID 0000.0001) %MON trcstat_ptracer25_max        =   7.4032084614478E-06
(PID.TID 0000.0001) %MON trcstat_ptracer25_min        =   1.1449875060228E-37
(PID.TID 0000.0001) %MON trcstat_ptracer25_mean       =   2.2044896209635E-07
(PID.TID 0000.0001) %MON trcstat_ptracer25_sd         =   1.1574250860217E-06
(PID.TID 0000.0001) %MON trcstat_ptracer25_del2       =   0.0000000000000E+00
(PID.TID 0000.0001) %MON trcstat_ptracer26_max        =   7.4838667285060E-06
(PID.TID 0000.0001) %MON trcstat_ptracer26_min        =   1.4160604848341E-29
(PID.TID 0000.0001) %MON trcstat_ptracer26_mean       =   2.2233932387412E-07
(PID.TID 0000.0001) %MON trcstat_ptracer26_sd         =   1.1674412484892E-06
(PID.TID 0000.0001) %MON trcstat_ptracer26_del2       =   0.0000000000000E+00
(PID.TID 0000.0001) %MON trcstat_ptracer27_max        =   7.2242642740638E-06
(PID.TID 0000.0001) %MON trcstat_ptracer27_min        =   1.1449875060228E-37
(PID.TID 0000.0001) %MON trcstat_ptracer27_mean       =   2.1541290466723E-07
(PID.TID 0000.0001) %MON trcstat_ptracer27_sd         =   1.1293476836548E-06
(PID.TID 0000.0001) %MON trcstat_ptracer27_del2       =   0.0000000000000E+00
(PID.TID 0000.0001) %MON trcstat_ptracer28_max        =   7.4099435164461E-06
(PID.TID 0000.0001) %MON trcstat_ptracer28_min        =   1.1449875060228E-37
(PID.TID 0000.0001) %MON trcstat_ptracer28_mean       =   2.2088094192113E-07
(PID.TID 0000.0001) %MON trcstat_ptracer28_sd         =   1.1593609752099E-06
(PID.TID 0000.0001) %MON trcstat_ptracer28_del2       =   0.0000000000000E+00
(PID.TID 0000.0001) %MON trcstat_ptracer29_max        =   7.3435014569499E-06
(PID.TID 0000.0001) %MON trcstat_ptracer29_min        =   1.1449875060228E-37
(PID.TID 0000.0001) %MON trcstat_ptracer29_mean       =   2.1817753516853E-07
(PID.TID 0000.0001) %MON trcstat_ptracer29_sd         =   1.1459038318404E-06
(PID.TID 0000.0001) %MON trcstat_ptracer29_del2       =   0.0000000000000E+00
(PID.TID 0000.0001) %MON trcstat_ptracer30_max        =   7.2242642740646E-06
(PID.TID 0000.0001) %MON trcstat_ptracer30_min        =   1.1449875060228E-37
(PID.TID 0000.0001) %MON trcstat_ptracer30_mean       =   2.1541386907487E-07
(PID.TID 0000.0001) %MON trcstat_ptracer30_sd         =   1.1293475715969E-06
(PID.TID 0000.0001) %MON trcstat_ptracer30_del2       =   0.0000000000000E+00
(PID.TID 0000.0001) %MON trcstat_ptracer31_max        =   7.3758520443785E-06
(PID.TID 0000.0001) %MON trcstat_ptracer31_min        =   1.1449875060228E-37
(PID.TID 0000.0001) %MON trcstat_ptracer31_mean       =   2.1966887251554E-07
(PID.TID 0000.0001) %MON trcstat_ptracer31_sd         =   1.1533007622425E-06
(PID.TID 0000.0001) %MON trcstat_ptracer31_del2       =   0.0000000000000E+00
(PID.TID 0000.0001) %MON trcstat_ptracer32_max        =   7.2236554197999E-06
(PID.TID 0000.0001) %MON trcstat_ptracer32_min        =   1.4160604848341E-29
(PID.TID 0000.0001) %MON trcstat_ptracer32_mean       =   2.1541290466723E-07
(PID.TID 0000.0001) %MON trcstat_ptracer32_sd         =   1.1287740036434E-06
(PID.TID 0000.0001) %MON trcstat_ptracer32_del2       =   0.0000000000000E+00
(PID.TID 0000.0001) %MON trcstat_ptracer33_max        =   7.4089864517922E-06
(PID.TID 0000.0001) %MON trcstat_ptracer33_min        =   1.1449875060228E-37
(PID.TID 0000.0001) %MON trcstat_ptracer33_mean       =   2.2073362481336E-07
(PID.TID 0000.0001) %MON trcstat_ptracer33_sd         =   1.1574881653150E-06
(PID.TID 0000.0001) %MON trcstat_ptracer33_del2       =   0.0000000000000E+00
(PID.TID 0000.0001) %MON trcstat_ptracer34_max        =   7.5155265405766E-06
(PID.TID 0000.0001) %MON trcstat_ptracer34_min        =   1.4160604848341E-29
(PID.TID 0000.0001) %MON trcstat_ptracer34_mean       =   2.2320008680826E-07
(PID.TID 0000.0001) %MON trcstat_ptracer34_sd         =   1.1719299135052E-06
(PID.TID 0000.0001) %MON trcstat_ptracer34_del2       =   0.0000000000000E+00
(PID.TID 0000.0001) %MON trcstat_ptracer35_max        =   7.2236554220391E-06
(PID.TID 0000.0001) %MON trcstat_ptracer35_min        =   1.4160604848341E-29
(PID.TID 0000.0001) %MON trcstat_ptracer35_mean       =   2.1541290472980E-07
(PID.TID 0000.0001) %MON trcstat_ptracer35_sd         =   1.1287740039802E-06
(PID.TID 0000.0001) %MON trcstat_ptracer35_del2       =   0.0000000000000E+00
(PID.TID 0000.0001) %MON trcstat_ptracer36_max        =   7.2242642740622E-06
(PID.TID 0000.0001) %MON trcstat_ptracer36_min        =   1.1449875060228E-37
(PID.TID 0000.0001) %MON trcstat_ptracer36_mean       =   2.1541290466717E-07
(PID.TID 0000.0001) %MON trcstat_ptracer36_sd         =   1.1293476836545E-06
(PID.TID 0000.0001) %MON trcstat_ptracer36_del2       =   0.0000000000000E+00
(PID.TID 0000.0001) %MON trcstat_ptracer37_max        =   7.2242642740628E-06
(PID.TID 0000.0001) %MON trcstat_ptracer37_min        =   1.1449875060228E-37
(PID.TID 0000.0001) %MON trcstat_ptracer37_mean       =   2.1541290466718E-07
(PID.TID 0000.0001) %MON trcstat_ptracer37_sd         =   1.1293476836546E-06
(PID.TID 0000.0001) %MON trcstat_ptracer37_del2       =   0.0000000000000E+00
(PID.TID 0000.0001) %MON trcstat_ptracer38_max        =   7.2242642740625E-06
(PID.TID 0000.0001) %MON trcstat_ptracer38_min        =   1.1449875060228E-37
(PID.TID 0000.0001) %MON trcstat_ptracer38_mean       =   2.1541290466717E-07
(PID.TID 0000.0001) %MON trcstat_ptracer38_sd         =   1.1293476836545E-06
(PID.TID 0000.0001) %MON trcstat_ptracer38_del2       =   0.0000000000000E+00
(PID.TID 0000.0001) %MON trcstat_ptracer39_max        =   7.2242642740632E-06
(PID.TID 0000.0001) %MON trcstat_ptracer39_min        =   1.1449875060228E-37
(PID.TID 0000.0001) %MON trcstat_ptracer39_mean       =   2.1541290466721E-07
(PID.TID 0000.0001) %MON trcstat_ptracer39_sd         =   1.1293476836547E-06
(PID.TID 0000.0001) %MON trcstat_ptracer39_del2       =   0.0000000000000E+00
(PID.TID 0000.0001) %MON trcstat_ptracer40_max        =   7.2242642740660E-06
(PID.TID 0000.0001) %MON trcstat_ptracer40_min        =   1.1449875060228E-37
(PID.TID 0000.0001) %MON trcstat_ptracer40_mean       =   2.1541290466729E-07
(PID.TID 0000.0001) %MON trcstat_ptracer40_sd         =   1.1293476836550E-06
(PID.TID 0000.0001) %MON trcstat_ptracer40_del2       =   0.0000000000000E+00
(PID.TID 0000.0001) %MON trcstat_ptracer41_max        =   7.3186495813319E-06
(PID.TID 0000.0001) %MON trcstat_ptracer41_min        =   1.1449875060228E-37
(PID.TID 0000.0001) %MON trcstat_ptracer41_mean       =   2.1872595596854E-07
(PID.TID 0000.0001) %MON trcstat_ptracer41_sd         =   1.1462933739208E-06
(PID.TID 0000.0001) %MON trcstat_ptracer41_del2       =   0.0000000000000E+00
(PID.TID 0000.0001) %MON trcstat_ptracer42_max        =   7.2242642740659E-06
(PID.TID 0000.0001) %MON trcstat_ptracer42_min        =   1.1449875060228E-37
(PID.TID 0000.0001) %MON trcstat_ptracer42_mean       =   2.1541290466728E-07
(PID.TID 0000.0001) %MON trcstat_ptracer42_sd         =   1.1293476836550E-06
(PID.TID 0000.0001) %MON trcstat_ptracer42_del2       =   0.0000000000000E+00
(PID.TID 0000.0001) %MON trcstat_ptracer43_max        =   7.2236554198047E-06
(PID.TID 0000.0001) %MON trcstat_ptracer43_min        =   1.4160604848341E-29
(PID.TID 0000.0001) %MON trcstat_ptracer43_mean       =   2.1541290466737E-07
(PID.TID 0000.0001) %MON trcstat_ptracer43_sd         =   1.1287740036442E-06
(PID.TID 0000.0001) %MON trcstat_ptracer43_del2       =   0.0000000000000E+00
(PID.TID 0000.0001) %MON trcstat_ptracer44_max        =   7.3601216254899E-06
(PID.TID 0000.0001) %MON trcstat_ptracer44_min        =   1.1449875060228E-37
(PID.TID 0000.0001) %MON trcstat_ptracer44_mean       =   2.1956518757482E-07
(PID.TID 0000.0001) %MON trcstat_ptracer44_sd         =   1.1507774372533E-06
(PID.TID 0000.0001) %MON trcstat_ptracer44_del2       =   0.0000000000000E+00
(PID.TID 0000.0001) %MON trcstat_ptracer45_max        =   7.2236554220391E-06
(PID.TID 0000.0001) %MON trcstat_ptracer45_min        =   1.4160604848341E-29
(PID.TID 0000.0001) %MON trcstat_ptracer45_mean       =   2.1541290472980E-07
(PID.TID 0000.0001) %MON trcstat_ptracer45_sd         =   1.1287740039802E-06
(PID.TID 0000.0001) %MON trcstat_ptracer45_del2       =   0.0000000000000E+00
(PID.TID 0000.0001) %MON trcstat_ptracer46_max        =   7.2236554198026E-06
(PID.TID 0000.0001) %MON trcstat_ptracer46_min        =   1.4160604848341E-29
(PID.TID 0000.0001) %MON trcstat_ptracer46_mean       =   2.1541648404324E-07
(PID.TID 0000.0001) %MON trcstat_ptracer46_sd         =   1.1287736251229E-06
(PID.TID 0000.0001) %MON trcstat_ptracer46_del2       =   0.0000000000000E+00
(PID.TID 0000.0001) %MON trcstat_ptracer47_max        =   7.2439807246666E-06
(PID.TID 0000.0001) %MON trcstat_ptracer47_min        =   1.4160604848341E-29
(PID.TID 0000.0001) %MON trcstat_ptracer47_mean       =   2.1681063780568E-07
(PID.TID 0000.0001) %MON trcstat_ptracer47_sd         =   1.1347613955990E-06
(PID.TID 0000.0001) %MON trcstat_ptracer47_del2       =   0.0000000000000E+00
(PID.TID 0000.0001) %MON trcstat_ptracer48_max        =   7.4137734633445E-06
(PID.TID 0000.0001) %MON trcstat_ptracer48_min        =   1.1449875060228E-37
(PID.TID 0000.0001) %MON trcstat_ptracer48_mean       =   2.2068970321511E-07
(PID.TID 0000.0001) %MON trcstat_ptracer48_sd         =   1.1588570886853E-06
(PID.TID 0000.0001) %MON trcstat_ptracer48_del2       =   0.0000000000000E+00
(PID.TID 0000.0001) %MON trcstat_ptracer49_max        =   7.2236554220377E-06
(PID.TID 0000.0001) %MON trcstat_ptracer49_min        =   1.4160604848341E-29
(PID.TID 0000.0001) %MON trcstat_ptracer49_mean       =   2.1541290472976E-07
(PID.TID 0000.0001) %MON trcstat_ptracer49_sd         =   1.1287740039800E-06
(PID.TID 0000.0001) %MON trcstat_ptracer49_del2       =   0.0000000000000E+00
(PID.TID 0000.0001) %MON trcstat_ptracer50_max        =   7.2924760857565E-06
(PID.TID 0000.0001) %MON trcstat_ptracer50_min        =   1.1449875060228E-37
(PID.TID 0000.0001) %MON trcstat_ptracer50_mean       =   2.1774850696823E-07
(PID.TID 0000.0001) %MON trcstat_ptracer50_sd         =   1.1410955473923E-06
(PID.TID 0000.0001) %MON trcstat_ptracer50_del2       =   0.0000000000000E+00
(PID.TID 0000.0001) %MON trcstat_ptracer51_max        =   7.2236554198008E-06
(PID.TID 0000.0001) %MON trcstat_ptracer51_min        =   1.4160604848341E-29
(PID.TID 0000.0001) %MON trcstat_ptracer51_mean       =   2.1541290466725E-07
(PID.TID 0000.0001) %MON trcstat_ptracer51_sd         =   1.1287740036436E-06
(PID.TID 0000.0001) %MON trcstat_ptracer51_del2       =   0.0000000000000E+00
(PID.TID 0000.0001) %MON trcstat_ptracer52_max        =   7.2294151364757E-06
(PID.TID 0000.0001) %MON trcstat_ptracer52_min        =   1.1449875060228E-37
(PID.TID 0000.0001) %MON trcstat_ptracer52_mean       =   2.1642489602961E-07
(PID.TID 0000.0001) %MON trcstat_ptracer52_sd         =   1.1335481863322E-06
(PID.TID 0000.0001) %MON trcstat_ptracer52_del2       =   0.0000000000000E+00
(PID.TID 0000.0001) %MON trcstat_ptracer53_max        =   7.4406205863072E-06
(PID.TID 0000.0001) %MON trcstat_ptracer53_min        =   1.1449875060228E-37
(PID.TID 0000.0001) %MON trcstat_ptracer53_mean       =   2.2156056460484E-07
(PID.TID 0000.0001) %MON trcstat_ptracer53_sd         =   1.1634949577188E-06
(PID.TID 0000.0001) %MON trcstat_ptracer53_del2       =   0.0000000000000E+00
(PID.TID 0000.0001) %MON trcstat_ptracer54_max        =   7.2236554197999E-06
(PID.TID 0000.0001) %MON trcstat_ptracer54_min        =   1.4160604848341E-29
(PID.TID 0000.0001) %MON trcstat_ptracer54_mean       =   2.1541327409162E-07
(PID.TID 0000.0001) %MON trcstat_ptracer54_sd         =   1.1287739484693E-06
(PID.TID 0000.0001) %MON trcstat_ptracer54_del2       =   0.0000000000000E+00
(PID.TID 0000.0001) %MON trcstat_ptracer55_max        =   7.2242642740704E-06
(PID.TID 0000.0001) %MON trcstat_ptracer55_min        =   1.1449875060228E-37
(PID.TID 0000.0001) %MON trcstat_ptracer55_mean       =   2.1541290466742E-07
(PID.TID 0000.0001) %MON trcstat_ptracer55_sd         =   1.1293476836557E-06
(PID.TID 0000.0001) %MON trcstat_ptracer55_del2       =   0.0000000000000E+00
(PID.TID 0000.0001) %MON trcstat_ptracer56_max        =   7.4762183355668E-06
(PID.TID 0000.0001) %MON trcstat_ptracer56_min        =   1.4160604848341E-29
(PID.TID 0000.0001) %MON trcstat_ptracer56_mean       =   2.2224990602066E-07
(PID.TID 0000.0001) %MON trcstat_ptracer56_sd         =   1.1667573577075E-06
(PID.TID 0000.0001) %MON trcstat_ptracer56_del2       =   0.0000000000000E+00
(PID.TID 0000.0001) %MON trcstat_ptracer57_max        =   7.2236554220370E-06
(PID.TID 0000.0001) %MON trcstat_ptracer57_min        =   1.4160604848341E-29
(PID.TID 0000.0001) %MON trcstat_ptracer57_mean       =   2.1541290472973E-07
(PID.TID 0000.0001) %MON trcstat_ptracer57_sd         =   1.1287740039799E-06
(PID.TID 0000.0001) %MON trcstat_ptracer57_del2       =   0.0000000000000E+00
(PID.TID 0000.0001) %MON trcstat_ptracer58_max        =   7.5164408304093E-06
(PID.TID 0000.0001) %MON trcstat_ptracer58_min        =   1.4160604848341E-29
(PID.TID 0000.0001) %MON trcstat_ptracer58_mean       =   2.2319807485774E-07
(PID.TID 0000.0001) %MON trcstat_ptracer58_sd         =   1.1724527114789E-06
(PID.TID 0000.0001) %MON trcstat_ptracer58_del2       =   0.0000000000000E+00
(PID.TID 0000.0001) %MON trcstat_ptracer59_max        =   7.3735166932466E-06
(PID.TID 0000.0001) %MON trcstat_ptracer59_min        =   1.1449875060228E-37
(PID.TID 0000.0001) %MON trcstat_ptracer59_mean       =   2.1983851976624E-07
(PID.TID 0000.0001) %MON trcstat_ptracer59_sd         =   1.1525707089648E-06
(PID.TID 0000.0001) %MON trcstat_ptracer59_del2       =   0.0000000000000E+00
(PID.TID 0000.0001) %MON trcstat_ptracer60_max        =   7.2242642740633E-06
(PID.TID 0000.0001) %MON trcstat_ptracer60_min        =   1.1449875060228E-37
(PID.TID 0000.0001) %MON trcstat_ptracer60_mean       =   2.1541290466721E-07
(PID.TID 0000.0001) %MON trcstat_ptracer60_sd         =   1.1293476836547E-06
(PID.TID 0000.0001) %MON trcstat_ptracer60_del2       =   0.0000000000000E+00
(PID.TID 0000.0001) %MON trcstat_ptracer61_max        =   7.4853927288722E-06
(PID.TID 0000.0001) %MON trcstat_ptracer61_min        =   1.4160604848341E-29
(PID.TID 0000.0001) %MON trcstat_ptracer61_mean       =   2.2245192180938E-07
(PID.TID 0000.0001) %MON trcstat_ptracer61_sd         =   1.1679638732377E-06
(PID.TID 0000.0001) %MON trcstat_ptracer61_del2       =   0.0000000000000E+00
(PID.TID 0000.0001) %MON trcstat_ptracer62_max        =   7.2236554220396E-06
(PID.TID 0000.0001) %MON trcstat_ptracer62_min        =   1.4160604848341E-29
(PID.TID 0000.0001) %MON trcstat_ptracer62_mean       =   2.1541290472981E-07
(PID.TID 0000.0001) %MON trcstat_ptracer62_sd         =   1.1287740039803E-06
(PID.TID 0000.0001) %MON trcstat_ptracer62_del2       =   0.0000000000000E+00
(PID.TID 0000.0001) %MON trcstat_ptracer63_max        =   7.2242642740664E-06
(PID.TID 0000.0001) %MON trcstat_ptracer63_min        =   1.1449875060228E-37
(PID.TID 0000.0001) %MON trcstat_ptracer63_mean       =   2.1541290466730E-07
(PID.TID 0000.0001) %MON trcstat_ptracer63_sd         =   1.1293476836551E-06
(PID.TID 0000.0001) %MON trcstat_ptracer63_del2       =   0.0000000000000E+00
(PID.TID 0000.0001) %MON trcstat_ptracer64_max        =   7.4489538388720E-06
(PID.TID 0000.0001) %MON trcstat_ptracer64_min        =   1.1449875060228E-37
(PID.TID 0000.0001) %MON trcstat_ptracer64_mean       =   2.2145084927492E-07
(PID.TID 0000.0001) %MON trcstat_ptracer64_sd         =   1.1625358164881E-06
(PID.TID 0000.0001) %MON trcstat_ptracer64_del2       =   0.0000000000000E+00
(PID.TID 0000.0001) %MON trcstat_ptracer65_max        =   7.3862191534381E-06
(PID.TID 0000.0001) %MON trcstat_ptracer65_min        =   1.1449875060228E-37
(PID.TID 0000.0001) %MON trcstat_ptracer65_mean       =   2.2009610260419E-07
(PID.TID 0000.0001) %MON trcstat_ptracer65_sd         =   1.1550856029156E-06
(PID.TID 0000.0001) %MON trcstat_ptracer65_del2       =   0.0000000000000E+00
(PID.TID 0000.0001) %MON trcstat_ptracer66_max        =   7.2236554198014E-06
(PID.TID 0000.0001) %MON trcstat_ptracer66_min        =   1.4160604848341E-29
(PID.TID 0000.0001) %MON trcstat_ptracer66_mean       =   2.1541290466727E-07
(PID.TID 0000.0001) %MON trcstat_ptracer66_sd         =   1.1287740036436E-06
(PID.TID 0000.0001) %MON trcstat_ptracer66_del2       =   0.0000000000000E+00
(PID.TID 0000.0001) %MON trcstat_ptracer67_max        =   7.3019399658917E-06
(PID.TID 0000.0001) %MON trcstat_ptracer67_min        =   1.4160604848341E-29
(PID.TID 0000.0001) %MON trcstat_ptracer67_mean       =   2.1832392579281E-07
(PID.TID 0000.0001) %MON trcstat_ptracer67_sd         =   1.1429025244305E-06
(PID.TID 0000.0001) %MON trcstat_ptracer67_del2       =   0.0000000000000E+00
(PID.TID 0000.0001) %MON trcstat_ptracer68_max        =   7.2242642740645E-06
(PID.TID 0000.0001) %MON trcstat_ptracer68_min        =   1.1449875060228E-37
(PID.TID 0000.0001) %MON trcstat_ptracer68_mean       =   2.1541290466724E-07
(PID.TID 0000.0001) %MON trcstat_ptracer68_sd         =   1.1293476836548E-06
(PID.TID 0000.0001) %MON trcstat_ptracer68_del2       =   0.0000000000000E+00
(PID.TID 0000.0001) %MON trcstat_ptracer69_max        =   7.4696729823998E-06
(PID.TID 0000.0001) %MON trcstat_ptracer69_min        =   1.4160604848341E-29
(PID.TID 0000.0001) %MON trcstat_ptracer69_mean       =   2.2194530931664E-07
(PID.TID 0000.0001) %MON trcstat_ptracer69_sd         =   1.1653650964864E-06
(PID.TID 0000.0001) %MON trcstat_ptracer69_del2       =   0.0000000000000E+00
(PID.TID 0000.0001) %MON trcstat_ptracer70_max        =   7.2236554198012E-06
(PID.TID 0000.0001) %MON trcstat_ptracer70_min        =   1.4160604848341E-29
(PID.TID 0000.0001) %MON trcstat_ptracer70_mean       =   2.1541400157022E-07
(PID.TID 0000.0001) %MON trcstat_ptracer70_sd         =   1.1287738595746E-06
(PID.TID 0000.0001) %MON trcstat_ptracer70_del2       =   0.0000000000000E+00
(PID.TID 0000.0001) %MON trcstat_ptracer71_max        =   7.2686045363392E-06
(PID.TID 0000.0001) %MON trcstat_ptracer71_min        =   1.4160604848341E-29
(PID.TID 0000.0001) %MON trcstat_ptracer71_mean       =   2.1742650371863E-07
(PID.TID 0000.0001) %MON trcstat_ptracer71_sd         =   1.1379827398464E-06
(PID.TID 0000.0001) %MON trcstat_ptracer71_del2       =   0.0000000000000E+00
(PID.TID 0000.0001) %MON trcstat_ptracer72_max        =   7.2236554220362E-06
(PID.TID 0000.0001) %MON trcstat_ptracer72_min        =   1.4160604848341E-29
(PID.TID 0000.0001) %MON trcstat_ptracer72_mean       =   2.1541290472971E-07
(PID.TID 0000.0001) %MON trcstat_ptracer72_sd         =   1.1287740039798E-06
(PID.TID 0000.0001) %MON trcstat_ptracer72_del2       =   0.0000000000000E+00
(PID.TID 0000.0001) %MON trcstat_ptracer73_max        =   7.4094782926605E-06
(PID.TID 0000.0001) %MON trcstat_ptracer73_min        =   1.1449875060228E-37
(PID.TID 0000.0001) %MON trcstat_ptracer73_mean       =   2.2066573512299E-07
(PID.TID 0000.0001) %MON trcstat_ptracer73_sd         =   1.1583712295483E-06
(PID.TID 0000.0001) %MON trcstat_ptracer73_del2       =   0.0000000000000E+00
(PID.TID 0000.0001) %MON trcstat_ptracer74_max        =   7.5317076192712E-06
(PID.TID 0000.0001) %MON trcstat_ptracer74_min        =   1.4160604848341E-29
(PID.TID 0000.0001) %MON trcstat_ptracer74_mean       =   2.2340028896235E-07
(PID.TID 0000.0001) %MON trcstat_ptracer74_sd         =   1.1739834896038E-06
(PID.TID 0000.0001) %MON trcstat_ptracer74_del2       =   0.0000000000000E+00
(PID.TID 0000.0001) %MON trcstat_ptracer75_max        =   7.4526082163973E-06
(PID.TID 0000.0001) %MON trcstat_ptracer75_min        =   1.4160604848341E-29
(PID.TID 0000.0001) %MON trcstat_ptracer75_mean       =   2.2166447014310E-07
(PID.TID 0000.0001) %MON trcstat_ptracer75_sd         =   1.1630958639998E-06
(PID.TID 0000.0001) %MON trcstat_ptracer75_del2       =   0.0000000000000E+00
(PID.TID 0000.0001) %MON trcstat_ptracer76_max        =   7.2242642740643E-06
(PID.TID 0000.0001) %MON trcstat_ptracer76_min        =   1.1449875060228E-37
(PID.TID 0000.0001) %MON trcstat_ptracer76_mean       =   2.1543647668955E-07
(PID.TID 0000.0001) %MON trcstat_ptracer76_sd         =   1.1294047421912E-06
(PID.TID 0000.0001) %MON trcstat_ptracer76_del2       =   0.0000000000000E+00
(PID.TID 0000.0001) %MON trcstat_ptracer77_max        =   7.5106438732186E-06
(PID.TID 0000.0001) %MON trcstat_ptracer77_min        =   1.4160604848341E-29
(PID.TID 0000.0001) %MON trcstat_ptracer77_mean       =   2.2324068263089E-07
(PID.TID 0000.0001) %MON trcstat_ptracer77_sd         =   1.1717275024429E-06
(PID.TID 0000.0001) %MON trcstat_ptracer77_del2       =   0.0000000000000E+00
(PID.TID 0000.0001) %MON trcstat_ptracer78_max        =   7.3427994571222E-06
(PID.TID 0000.0001) %MON trcstat_ptracer78_min        =   1.4160604848341E-29
(PID.TID 0000.0001) %MON trcstat_ptracer78_mean       =   2.1933672855396E-07
(PID.TID 0000.0001) %MON trcstat_ptracer78_sd         =   1.1486853338644E-06
(PID.TID 0000.0001) %MON trcstat_ptracer78_del2       =   0.0000000000000E+00
(PID.TID 0000.0001) %MON trcstat_ptracer79_max        =   7.2242642740690E-06
(PID.TID 0000.0001) %MON trcstat_ptracer79_min        =   1.1449875060228E-37
(PID.TID 0000.0001) %MON trcstat_ptracer79_mean       =   2.1541290466738E-07
(PID.TID 0000.0001) %MON trcstat_ptracer79_sd         =   1.1293476836555E-06
(PID.TID 0000.0001) %MON trcstat_ptracer79_del2       =   0.0000000000000E+00
(PID.TID 0000.0001) %MON trcstat_ptracer80_max        =   7.4095331708766E-06
(PID.TID 0000.0001) %MON trcstat_ptracer80_min        =   1.1449875060228E-37
(PID.TID 0000.0001) %MON trcstat_ptracer80_mean       =   2.2045884278308E-07
(PID.TID 0000.0001) %MON trcstat_ptracer80_sd         =   1.1578943489081E-06
(PID.TID 0000.0001) %MON trcstat_ptracer80_del2       =   0.0000000000000E+00
(PID.TID 0000.0001) %MON trcstat_ptracer81_max        =   7.2242642740705E-06
(PID.TID 0000.0001) %MON trcstat_ptracer81_min        =   1.1449875060228E-37
(PID.TID 0000.0001) %MON trcstat_ptracer81_mean       =   2.1541290466742E-07
(PID.TID 0000.0001) %MON trcstat_ptracer81_sd         =   1.1293476836557E-06
(PID.TID 0000.0001) %MON trcstat_ptracer81_del2       =   0.0000000000000E+00
(PID.TID 0000.0001) %MON trcstat_ptracer82_max        =   7.2236554198047E-06
(PID.TID 0000.0001) %MON trcstat_ptracer82_min        =   1.4160604848341E-29
(PID.TID 0000.0001) %MON trcstat_ptracer82_mean       =   2.1541290466737E-07
(PID.TID 0000.0001) %MON trcstat_ptracer82_sd         =   1.1287740036442E-06
(PID.TID 0000.0001) %MON trcstat_ptracer82_del2       =   0.0000000000000E+00
(PID.TID 0000.0001) %MON trcstat_ptracer83_max        =   7.2236554220402E-06
(PID.TID 0000.0001) %MON trcstat_ptracer83_min        =   1.4160604848341E-29
(PID.TID 0000.0001) %MON trcstat_ptracer83_mean       =   2.1541290472983E-07
(PID.TID 0000.0001) %MON trcstat_ptracer83_sd         =   1.1287740039804E-06
(PID.TID 0000.0001) %MON trcstat_ptracer83_del2       =   0.0000000000000E+00
(PID.TID 0000.0001) %MON trcstat_ptracer84_max        =   7.2242642740637E-06
(PID.TID 0000.0001) %MON trcstat_ptracer84_min        =   1.1449875060228E-37
(PID.TID 0000.0001) %MON trcstat_ptracer84_mean       =   2.1544905005510E-07
(PID.TID 0000.0001) %MON trcstat_ptracer84_sd         =   1.1293899573658E-06
(PID.TID 0000.0001) %MON trcstat_ptracer84_del2       =   0.0000000000000E+00
(PID.TID 0000.0001) %MON trcstat_ptracer85_max        =   7.2242642740653E-06
(PID.TID 0000.0001) %MON trcstat_ptracer85_min        =   1.1449875060228E-37
(PID.TID 0000.0001) %MON trcstat_ptracer85_mean       =   2.1541290466728E-07
(PID.TID 0000.0001) %MON trcstat_ptracer85_sd         =   1.1293476836550E-06
(PID.TID 0000.0001) %MON trcstat_ptracer85_del2       =   0.0000000000000E+00
(PID.TID 0000.0001) %MON trcstat_ptracer86_max        =   7.2242642740681E-06
(PID.TID 0000.0001) %MON trcstat_ptracer86_min        =   1.1449875060228E-37
(PID.TID 0000.0001) %MON trcstat_ptracer86_mean       =   2.1541290466735E-07
(PID.TID 0000.0001) %MON trcstat_ptracer86_sd         =   1.1293476836553E-06
(PID.TID 0000.0001) %MON trcstat_ptracer86_del2       =   0.0000000000000E+00
(PID.TID 0000.0001) %MON trcstat_ptracer87_max        =   7.2236554198010E-06
(PID.TID 0000.0001) %MON trcstat_ptracer87_min        =   1.4160604848341E-29
(PID.TID 0000.0001) %MON trcstat_ptracer87_mean       =   2.1541290466726E-07
(PID.TID 0000.0001) %MON trcstat_ptracer87_sd         =   1.1287740036436E-06
(PID.TID 0000.0001) %MON trcstat_ptracer87_del2       =   0.0000000000000E+00
(PID.TID 0000.0001) %MON trcstat_ptracer88_max        =   7.2236554244188E-06
(PID.TID 0000.0001) %MON trcstat_ptracer88_min        =   1.4160604848341E-29
(PID.TID 0000.0001) %MON trcstat_ptracer88_mean       =   2.1591685588073E-07
(PID.TID 0000.0001) %MON trcstat_ptracer88_sd         =   1.1304087666729E-06
(PID.TID 0000.0001) %MON trcstat_ptracer88_del2       =   0.0000000000000E+00
(PID.TID 0000.0001) %MON trcstat_ptracer89_max        =   7.2236554198029E-06
(PID.TID 0000.0001) %MON trcstat_ptracer89_min        =   1.4160604848341E-29
(PID.TID 0000.0001) %MON trcstat_ptracer89_mean       =   2.1541466979067E-07
(PID.TID 0000.0001) %MON trcstat_ptracer89_sd         =   1.1287737764837E-06
(PID.TID 0000.0001) %MON trcstat_ptracer89_del2       =   0.0000000000000E+00
(PID.TID 0000.0001) %MON trcstat_ptracer90_max        =   7.2236554198006E-06
(PID.TID 0000.0001) %MON trcstat_ptracer90_min        =   1.4160604848341E-29
(PID.TID 0000.0001) %MON trcstat_ptracer90_mean       =   2.1541290466725E-07
(PID.TID 0000.0001) %MON trcstat_ptracer90_sd         =   1.1287740036435E-06
(PID.TID 0000.0001) %MON trcstat_ptracer90_del2       =   0.0000000000000E+00
(PID.TID 0000.0001) %MON trcstat_ptracer91_max        =   7.3663696095940E-06
(PID.TID 0000.0001) %MON trcstat_ptracer91_min        =   1.4160604848341E-29
(PID.TID 0000.0001) %MON trcstat_ptracer91_mean       =   2.1957313667197E-07
(PID.TID 0000.0001) %MON trcstat_ptracer91_sd         =   1.1508041030959E-06
(PID.TID 0000.0001) %MON trcstat_ptracer91_del2       =   0.0000000000000E+00
(PID.TID 0000.0001) %MON trcstat_ptracer92_max        =   7.4316047778264E-06
(PID.TID 0000.0001) %MON trcstat_ptracer92_min        =   1.1449875060228E-37
(PID.TID 0000.0001) %MON trcstat_ptracer92_mean       =   2.2083358174270E-07
(PID.TID 0000.0001) %MON trcstat_ptracer92_sd         =   1.1592795424268E-06
(PID.TID 0000.0001) %MON trcstat_ptracer92_del2       =   0.0000000000000E+00
(PID.TID 0000.0001) %MON trcstat_ptracer93_max        =   7.2242642740653E-06
(PID.TID 0000.0001) %MON trcstat_ptracer93_min        =   1.1449875060228E-37
(PID.TID 0000.0001) %MON trcstat_ptracer93_mean       =   2.1541290466727E-07
(PID.TID 0000.0001) %MON trcstat_ptracer93_sd         =   1.1293476836550E-06
(PID.TID 0000.0001) %MON trcstat_ptracer93_del2       =   0.0000000000000E+00
(PID.TID 0000.0001) %MON trcstat_ptracer94_max        =   7.2236554198010E-06
(PID.TID 0000.0001) %MON trcstat_ptracer94_min        =   1.4160604848341E-29
(PID.TID 0000.0001) %MON trcstat_ptracer94_mean       =   2.1541711139545E-07
(PID.TID 0000.0001) %MON trcstat_ptracer94_sd         =   1.1287736794423E-06
(PID.TID 0000.0001) %MON trcstat_ptracer94_del2       =   0.0000000000000E+00
(PID.TID 0000.0001) %MON trcstat_ptracer95_max        =   7.2242642740640E-06
(PID.TID 0000.0001) %MON trcstat_ptracer95_min        =   1.1449875060228E-37
(PID.TID 0000.0001) %MON trcstat_ptracer95_mean       =   2.1541459333153E-07
(PID.TID 0000.0001) %MON trcstat_ptracer95_sd         =   1.1293475175208E-06
(PID.TID 0000.0001) %MON trcstat_ptracer95_del2       =   0.0000000000000E+00
(PID.TID 0000.0001) %MON trcstat_ptracer96_max        =   7.4030666136230E-06
(PID.TID 0000.0001) %MON trcstat_ptracer96_min        =   1.1449875060228E-37
(PID.TID 0000.0001) %MON trcstat_ptracer96_mean       =   2.2065718504314E-07
(PID.TID 0000.0001) %MON trcstat_ptracer96_sd         =   1.1581651749291E-06
(PID.TID 0000.0001) %MON trcstat_ptracer96_del2       =   0.0000000000000E+00
(PID.TID 0000.0001) %MON trcstat_ptracer97_max        =   7.2242642740638E-06
(PID.TID 0000.0001) %MON trcstat_ptracer97_min        =   1.1449875060228E-37
(PID.TID 0000.0001) %MON trcstat_ptracer97_mean       =   2.1546997003867E-07
(PID.TID 0000.0001) %MON trcstat_ptracer97_sd         =   1.1294294407784E-06
(PID.TID 0000.0001) %MON trcstat_ptracer97_del2       =   0.0000000000000E+00
(PID.TID 0000.0001) %MON trcstat_ptracer98_max        =   7.4021889077488E-06
(PID.TID 0000.0001) %MON trcstat_ptracer98_min        =   1.1449875060228E-37
(PID.TID 0000.0001) %MON trcstat_ptracer98_mean       =   2.2033348060274E-07
(PID.TID 0000.0001) %MON trcstat_ptracer98_sd         =   1.1571701778018E-06
(PID.TID 0000.0001) %MON trcstat_ptracer98_del2       =   0.0000000000000E+00
(PID.TID 0000.0001) %MON trcstat_ptracer99_max        =   7.2242642740693E-06
(PID.TID 0000.0001) %MON trcstat_ptracer99_min        =   1.1449875060228E-37
(PID.TID 0000.0001) %MON trcstat_ptracer99_mean       =   2.1541290466739E-07
(PID.TID 0000.0001) %MON trcstat_ptracer99_sd         =   1.1293476836555E-06
(PID.TID 0000.0001) %MON trcstat_ptracer99_del2       =   0.0000000000000E+00
(PID.TID 0000.0001) // =======================================================
(PID.TID 0000.0001) // End MONITOR ptracers field statistics
(PID.TID 0000.0001) // =======================================================
(PID.TID 0000.0001) %CHECKPOINT         4 ckptA
(PID.TID 0000.0001)   Seconds in section "ALL                    [THE_MODEL_MAIN]":
(PID.TID 0000.0001)           User time:  0.610000014305115
(PID.TID 0000.0001)         System time:  7.999999821186066E-002
(PID.TID 0000.0001)     Wall clock time:  0.756354093551636
(PID.TID 0000.0001)          No. starts:           1
(PID.TID 0000.0001)           No. stops:           1
(PID.TID 0000.0001)   Seconds in section "INITIALISE_FIXED       [THE_MODEL_MAIN]":
(PID.TID 0000.0001)           User time:  0.259999990463257
(PID.TID 0000.0001)         System time:  3.999999910593033E-002
(PID.TID 0000.0001)     Wall clock time:  0.341215848922729
(PID.TID 0000.0001)          No. starts:           1
(PID.TID 0000.0001)           No. stops:           1
(PID.TID 0000.0001)   Seconds in section "THE_MAIN_LOOP          [THE_MODEL_MAIN]":
(PID.TID 0000.0001)           User time:  0.350000023841858
(PID.TID 0000.0001)         System time:  3.999999910593033E-002
(PID.TID 0000.0001)     Wall clock time:  0.414457082748413
(PID.TID 0000.0001)          No. starts:           1
(PID.TID 0000.0001)           No. stops:           1
(PID.TID 0000.0001)   Seconds in section "INITIALISE_VARIA    [THE_MAIN_LOOP]":
(PID.TID 0000.0001)           User time:  6.000000238418579E-002
(PID.TID 0000.0001)         System time:  1.999999955296516E-002
(PID.TID 0000.0001)     Wall clock time:  9.008288383483887E-002
(PID.TID 0000.0001)          No. starts:           1
(PID.TID 0000.0001)           No. stops:           1
(PID.TID 0000.0001)   Seconds in section "MAIN LOOP           [THE_MAIN_LOOP]":
(PID.TID 0000.0001)           User time:  0.290000021457672
(PID.TID 0000.0001)         System time:  1.999999955296516E-002
(PID.TID 0000.0001)     Wall clock time:  0.324333906173706
(PID.TID 0000.0001)          No. starts:           1
(PID.TID 0000.0001)           No. stops:           1
(PID.TID 0000.0001)   Seconds in section "FORWARD_STEP        [THE_MAIN_LOOP]":
(PID.TID 0000.0001)           User time:  0.290000021457672
(PID.TID 0000.0001)         System time:  1.999999955296516E-002
(PID.TID 0000.0001)     Wall clock time:  0.324286222457886
(PID.TID 0000.0001)          No. starts:           4
(PID.TID 0000.0001)           No. stops:           4
(PID.TID 0000.0001)   Seconds in section "LOAD_FIELDS_DRIVER  [FORWARD_STEP]":
(PID.TID 0000.0001)           User time:  0.000000000000000E+000
(PID.TID 0000.0001)         System time:  0.000000000000000E+000
(PID.TID 0000.0001)     Wall clock time:  1.807689666748047E-003
(PID.TID 0000.0001)          No. starts:           4
(PID.TID 0000.0001)           No. stops:           4
(PID.TID 0000.0001)   Seconds in section "EXTERNAL_FLDS_LOAD [LOAD_FLDS_DRIVER]":
(PID.TID 0000.0001)           User time:  0.000000000000000E+000
(PID.TID 0000.0001)         System time:  0.000000000000000E+000
(PID.TID 0000.0001)     Wall clock time:  5.137920379638672E-004
(PID.TID 0000.0001)          No. starts:           4
(PID.TID 0000.0001)           No. stops:           4
(PID.TID 0000.0001)   Seconds in section "DO_ATMOSPHERIC_PHYS [FORWARD_STEP]":
(PID.TID 0000.0001)           User time:  0.000000000000000E+000
(PID.TID 0000.0001)         System time:  0.000000000000000E+000
(PID.TID 0000.0001)     Wall clock time:  5.197525024414062E-005
(PID.TID 0000.0001)          No. starts:           4
(PID.TID 0000.0001)           No. stops:           4
(PID.TID 0000.0001)   Seconds in section "DO_OCEANIC_PHYS     [FORWARD_STEP]":
(PID.TID 0000.0001)           User time:  0.000000000000000E+000
(PID.TID 0000.0001)         System time:  0.000000000000000E+000
(PID.TID 0000.0001)     Wall clock time:  2.479553222656250E-004
(PID.TID 0000.0001)          No. starts:           4
(PID.TID 0000.0001)           No. stops:           4
(PID.TID 0000.0001)   Seconds in section "GCHEM_CALC_TENDENCY [FORWARD_STEP]":
(PID.TID 0000.0001)           User time:  0.000000000000000E+000
(PID.TID 0000.0001)         System time:  0.000000000000000E+000
(PID.TID 0000.0001)     Wall clock time:  3.695487976074219E-005
(PID.TID 0000.0001)          No. starts:           4
(PID.TID 0000.0001)           No. stops:           4
(PID.TID 0000.0001)   Seconds in section "THERMODYNAMICS      [FORWARD_STEP]":
(PID.TID 0000.0001)           User time:  0.180000066757202
(PID.TID 0000.0001)         System time:  0.000000000000000E+000
(PID.TID 0000.0001)     Wall clock time:  0.168810844421387
(PID.TID 0000.0001)          No. starts:           4
(PID.TID 0000.0001)           No. stops:           4
(PID.TID 0000.0001)   Seconds in section "TRC_CORRECTION_STEP [FORWARD_STEP]":
(PID.TID 0000.0001)           User time:  9.999990463256836E-003
(PID.TID 0000.0001)         System time:  0.000000000000000E+000
(PID.TID 0000.0001)     Wall clock time:  1.400566101074219E-002
(PID.TID 0000.0001)          No. starts:           4
(PID.TID 0000.0001)           No. stops:           4
(PID.TID 0000.0001)   Seconds in section "GCHEM_FORCING_SEP  [FORWARD_STEP]":
(PID.TID 0000.0001)           User time:  9.999990463256836E-003
(PID.TID 0000.0001)         System time:  0.000000000000000E+000
(PID.TID 0000.0001)     Wall clock time:  7.449865341186523E-003
(PID.TID 0000.0001)          No. starts:           4
(PID.TID 0000.0001)           No. stops:           4
(PID.TID 0000.0001)   Seconds in section "BLOCKING_EXCHANGES  [FORWARD_STEP]":
(PID.TID 0000.0001)           User time:  3.999996185302734E-002
(PID.TID 0000.0001)         System time:  0.000000000000000E+000
(PID.TID 0000.0001)     Wall clock time:  4.637575149536133E-002
(PID.TID 0000.0001)          No. starts:           4
(PID.TID 0000.0001)           No. stops:           4
(PID.TID 0000.0001)   Seconds in section "DO_STATEVARS_TAVE   [FORWARD_STEP]":
(PID.TID 0000.0001)           User time:  0.000000000000000E+000
(PID.TID 0000.0001)         System time:  0.000000000000000E+000
(PID.TID 0000.0001)     Wall clock time:  9.098052978515625E-004
(PID.TID 0000.0001)          No. starts:           4
(PID.TID 0000.0001)           No. stops:           4
(PID.TID 0000.0001)   Seconds in section "MONITOR             [FORWARD_STEP]":
(PID.TID 0000.0001)           User time:  0.000000000000000E+000
(PID.TID 0000.0001)         System time:  0.000000000000000E+000
(PID.TID 0000.0001)     Wall clock time:  4.105091094970703E-003
(PID.TID 0000.0001)          No. starts:           4
(PID.TID 0000.0001)           No. stops:           4
(PID.TID 0000.0001)   Seconds in section "DO_THE_MODEL_IO     [FORWARD_STEP]":
(PID.TID 0000.0001)           User time:  5.000001192092896E-002
(PID.TID 0000.0001)         System time:  1.000000163912773E-002
(PID.TID 0000.0001)     Wall clock time:  5.771279335021973E-002
(PID.TID 0000.0001)          No. starts:           4
(PID.TID 0000.0001)           No. stops:           4
(PID.TID 0000.0001)   Seconds in section "DO_WRITE_PICKUP     [FORWARD_STEP]":
(PID.TID 0000.0001)           User time:  0.000000000000000E+000
(PID.TID 0000.0001)         System time:  9.999997913837433E-003
(PID.TID 0000.0001)     Wall clock time:  2.224206924438477E-002
(PID.TID 0000.0001)          No. starts:           4
(PID.TID 0000.0001)           No. stops:           4
(PID.TID 0000.0001) // ======================================================
(PID.TID 0000.0001) // Tile <-> Tile communication statistics
(PID.TID 0000.0001) // ======================================================
(PID.TID 0000.0001) // o Tile number: 000001
(PID.TID 0000.0001) //         No. X exchanges =              0
(PID.TID 0000.0001) //            Max. X spins =              0
(PID.TID 0000.0001) //            Min. X spins =     1000000000
(PID.TID 0000.0001) //          Total. X spins =              0
(PID.TID 0000.0001) //            Avg. X spins =       0.00E+00
(PID.TID 0000.0001) //         No. Y exchanges =              0
(PID.TID 0000.0001) //            Max. Y spins =              0
(PID.TID 0000.0001) //            Min. Y spins =     1000000000
(PID.TID 0000.0001) //          Total. Y spins =              0
(PID.TID 0000.0001) //            Avg. Y spins =       0.00E+00
(PID.TID 0000.0001) // o Thread number: 000001
(PID.TID 0000.0001) //            No. barriers =          18946
(PID.TID 0000.0001) //      Max. barrier spins =              1
(PID.TID 0000.0001) //      Min. barrier spins =              1
(PID.TID 0000.0001) //     Total barrier spins =          18946
(PID.TID 0000.0001) //      Avg. barrier spins =       1.00E+00
